@<TRIPOS>MOLECULE
6483057
 66 65 0 0 0
SMALL
GASTEIGER

@<TRIPOS>ATOM
      1 O           3.2991    2.2210   -0.1925 O.3     1  UNL1       -0.3720
      2 O           5.9131    2.1779   -1.1967 O.3     1  UNL1       -0.3924
      3 O           3.6804    5.8619   -0.9677 O.3     1  UNL1       -0.3924
      4 C           2.1090    0.5810    1.1466 C.3     1  UNL1       -0.0292
      5 C           1.3943    0.2761    2.4878 C.3     1  UNL1       -0.0475
      6 C           2.5116    2.0621    0.9991 C.3     1  UNL1        0.0482
      7 C          -2.7253    0.5880   -1.3517 C.3     1  UNL1       -0.0496
      8 C          -1.8528    0.0202   -2.5027 C.3     1  UNL1       -0.0530
      9 C           0.7962   -1.1455    2.5715 C.3     1  UNL1       -0.0347
     10 C           3.9808    3.4723   -0.4121 C.3     1  UNL1        0.1046
     11 C          -2.0014    0.8721   -0.0073 C.3     1  UNL1       -0.0348
     12 C          -2.6522   -0.1749   -3.8201 C.3     1  UNL1       -0.0559
     13 C           1.6730   -2.2917    2.4491 C.2     1  UNL1       -0.0876
     14 C           5.0072    3.2212   -1.5437 C.3     1  UNL1        0.0725
     15 C           3.0028    4.6327   -0.7315 C.3     1  UNL1        0.0725
     16 C          -2.9591    1.2246    1.0344 C.2     1  UNL1       -0.0876
     17 C          -1.8391   -0.7558   -4.9964 C.3     1  UNL1       -0.0653
     18 C           1.6380   -3.2487    1.5038 C.2     1  UNL1       -0.0842
     19 C           0.7582   -3.3712    0.3434 C.3     1  UNL1       -0.0165
     20 C          -3.3734    0.5302    2.1103 C.2     1  UNL1       -0.0842
     21 C          -2.9286   -0.7604    2.6069 C.3     1  UNL1       -0.0165
     22 C          -0.2843   -4.3735    0.5235 C.2     1  UNL1       -0.0839
     23 C          -3.7350   -1.9368    2.3385 C.2     1  UNL1       -0.0839
     24 C          -2.4790   -3.0814    0.4385 C.3     1  UNL1       -0.0165
     25 C          -1.6246   -4.2567    0.5596 C.2     1  UNL1       -0.0839
     26 C          -3.5177   -2.9310    1.4550 C.2     1  UNL1       -0.0839
     27 H           1.4589    0.3185    0.3066 H       1  UNL1        0.0287
     28 H           3.0042   -0.0421    1.0785 H       1  UNL1        0.0287
     29 H           2.0751    0.4395    3.3265 H       1  UNL1        0.0269
     30 H           0.5659    0.9835    2.6077 H       1  UNL1        0.0269
     31 H           3.0808    2.3666    1.8815 H       1  UNL1        0.0560
     32 H           1.6045    2.6686    0.9366 H       1  UNL1        0.0560
     33 H          -3.5356   -0.1257   -1.1730 H       1  UNL1        0.0268
     34 H          -3.1805    1.5225   -1.6941 H       1  UNL1        0.0268
     35 H          -1.4383   -0.9432   -2.1929 H       1  UNL1        0.0265
     36 H          -1.0144    0.6967   -2.6887 H       1  UNL1        0.0265
     37 H           0.0788   -1.1722    1.7685 H       1  UNL1        0.0307
     38 H           0.2441   -1.2423    3.5107 H       1  UNL1        0.0307
     39 H           4.5563    3.7405    0.4802 H       1  UNL1        0.0642
     40 H          -1.2980    1.6988   -0.1408 H       1  UNL1        0.0307
     41 H          -1.3830    0.0209    0.2585 H       1  UNL1        0.0307
     42 H          -3.4980   -0.8431   -3.6348 H       1  UNL1        0.0263
     43 H          -3.0614    0.7880   -4.1382 H       1  UNL1        0.0263
     44 H           2.3581   -2.3758    3.1666 H       1  UNL1        0.0569
     45 H           4.5005    2.9430   -2.4703 H       1  UNL1        0.0584
     46 H           5.6007    4.1183   -1.7308 H       1  UNL1        0.0584
     47 H           2.3944    4.3885   -1.6046 H       1  UNL1        0.0584
     48 H           2.3324    4.8059    0.1116 H       1  UNL1        0.0584
     49 H          -3.3767    2.1206    0.9091 H       1  UNL1        0.0569
     50 H          -2.4763   -0.8499   -5.8787 H       1  UNL1        0.0230
     51 H          -1.4526   -1.7462   -4.7493 H       1  UNL1        0.0230
     52 H          -1.0022   -0.1027   -5.2498 H       1  UNL1        0.0230
     53 H           2.3073   -3.9795    1.6079 H       1  UNL1        0.0572
     54 H           1.3805   -3.6891   -0.4977 H       1  UNL1        0.0350
     55 H           0.3684   -2.4173   -0.0070 H       1  UNL1        0.0350
     56 H          -4.0717    0.9675    2.6701 H       1  UNL1        0.0572
     57 H          -2.8050   -0.6777    3.6909 H       1  UNL1        0.0350
     58 H          -1.9316   -0.9448    2.2760 H       1  UNL1        0.0350
     59 H           0.0679   -5.3026    0.6145 H       1  UNL1        0.0572
     60 H          -4.5406   -2.0242    2.9185 H       1  UNL1        0.0572
     61 H          -3.0056   -3.1799   -0.5144 H       1  UNL1        0.0350
     62 H          -1.8898   -2.1813    0.3305 H       1  UNL1        0.0350
     63 H           6.5289    2.1094   -1.9566 H       1  UNL1        0.2095
     64 H           2.9676    6.5170   -1.1219 H       1  UNL1        0.2095
     65 H          -2.1238   -5.1137    0.6666 H       1  UNL1        0.0572
     66 H          -4.1813   -3.6747    1.4801 H       1  UNL1        0.0572
@<TRIPOS>BOND
     1     1     6    1
     2     1    10    1
     3     2    14    1
     4     2    63    1
     5     3    15    1
     6     3    64    1
     7     4     5    1
     8     4     6    1
     9     4    27    1
    10     4    28    1
    11     5     9    1
    12     5    29    1
    13     5    30    1
    14     6    31    1
    15     6    32    1
    16     7     8    1
    17     7    11    1
    18     7    33    1
    19     7    34    1
    20     8    12    1
    21     8    35    1
    22     8    36    1
    23     9    13    1
    24     9    37    1
    25     9    38    1
    26    10    14    1
    27    10    15    1
    28    10    39    1
    29    11    16    1
    30    11    40    1
    31    11    41    1
    32    12    17    1
    33    12    42    1
    34    12    43    1
    35    13    18    2
    36    13    44    1
    37    14    45    1
    38    14    46    1
    39    15    47    1
    40    15    48    1
    41    16    20    2
    42    16    49    1
    43    17    50    1
    44    17    51    1
    45    17    52    1
    46    18    19    1
    47    18    53    1
    48    19    22    1
    49    19    54    1
    50    19    55    1
    51    20    21    1
    52    20    56    1
    53    21    23    1
    54    21    57    1
    55    21    58    1
    56    22    25    2
    57    22    59    1
    58    23    26    2
    59    23    60    1
    60    24    25    1
    61    24    26    1
    62    24    61    1
    63    24    62    1
    64    25    65    1
    65    26    66    1
