@<TRIPOS>MOLECULE
5282280
 65 64 0 0 0
SMALL
GASTEIGER

@<TRIPOS>ATOM
      1 O           0.4759    4.0759    0.0218 O.3     1  UNL1       -0.4567
      2 O          -0.4386    6.5686   -0.8949 O.3     1  UNL1       -0.3913
      3 O           3.4935    4.8696   -1.7972 O.3     1  UNL1       -0.3913
      4 O           1.4376    3.6481    1.9040 O.2     1  UNL1       -0.2508
      5 C           1.8668   -1.8778   -1.2697 C.3     1  UNL1       -0.0496
      6 C           0.9586   -1.4079   -2.4368 C.3     1  UNL1       -0.0530
      7 C           1.7241   -1.0772    0.0517 C.3     1  UNL1       -0.0348
      8 C           1.1797   -2.2204   -3.7403 C.3     1  UNL1       -0.0559
      9 C          -0.4163    1.6396    2.6461 C.3     1  UNL1       -0.0395
     10 C          -0.4883    2.4553    1.3263 C.3     1  UNL1        0.0452
     11 C          -1.3184    0.3836    2.6574 C.3     1  UNL1       -0.0343
     12 C           2.4513   -1.7170    1.1411 C.2     1  UNL1       -0.0876
     13 C           0.2652   -1.8123   -4.9149 C.3     1  UNL1       -0.0653
     14 C           1.3316    4.8828   -0.6264 C.3     1  UNL1        0.1488
     15 C           0.5386    3.4512    1.0961 C.2     1  UNL1        0.3075
     16 C           1.9910   -2.4265    2.1896 C.2     1  UNL1       -0.0842
     17 C          -2.7603    0.5009    2.5672 C.2     1  UNL1       -0.0876
     18 C           0.6212   -2.7028    2.5876 C.3     1  UNL1       -0.0165
     19 C           0.5078    5.7675   -1.5947 C.3     1  UNL1        0.0834
     20 C           2.4152    4.0490   -1.3628 C.3     1  UNL1        0.0834
     21 C          -3.5876   -0.0896    1.6829 C.2     1  UNL1       -0.0842
     22 C          -3.2893   -0.9499    0.5381 C.3     1  UNL1       -0.0165
     23 C           0.0822   -4.0356    2.3949 C.2     1  UNL1       -0.0839
     24 C          -1.5610   -3.6837    0.4835 C.3     1  UNL1       -0.0165
     25 C          -3.7102   -2.3358    0.7007 C.2     1  UNL1       -0.0839
     26 C          -0.8780   -4.4326    1.5365 C.2     1  UNL1       -0.0839
     27 C          -2.9907   -3.4749    0.6789 C.2     1  UNL1       -0.0839
     28 H           1.6337   -2.9290   -1.0737 H       1  UNL1        0.0268
     29 H           2.9108   -1.8269   -1.5937 H       1  UNL1        0.0268
     30 H          -0.0873   -1.5063   -2.1322 H       1  UNL1        0.0265
     31 H           1.1459   -0.3495   -2.6375 H       1  UNL1        0.0265
     32 H           2.1174   -0.0662   -0.0932 H       1  UNL1        0.0307
     33 H           0.6671   -0.9453    0.2670 H       1  UNL1        0.0307
     34 H           1.0146   -3.2824   -3.5382 H       1  UNL1        0.0263
     35 H           2.2182   -2.1061   -4.0628 H       1  UNL1        0.0263
     36 H          -0.6388    2.2760    3.5056 H       1  UNL1        0.0273
     37 H           0.6117    1.2800    2.7746 H       1  UNL1        0.0273
     38 H          -0.4256    1.7583    0.4848 H       1  UNL1        0.0378
     39 H          -1.4677    2.9376    1.2807 H       1  UNL1        0.0378
     40 H          -0.9641   -0.1713    1.8064 H       1  UNL1        0.0307
     41 H          -1.0966   -0.1974    3.5571 H       1  UNL1        0.0307
     42 H           3.4410   -1.6190    1.0816 H       1  UNL1        0.0569
     43 H           0.4948   -2.4188   -5.7936 H       1  UNL1        0.0230
     44 H          -0.7849   -1.9668   -4.6597 H       1  UNL1        0.0230
     45 H           0.4141   -0.7632   -5.1763 H       1  UNL1        0.0230
     46 H           1.8250    5.5555    0.0843 H       1  UNL1        0.0780
     47 H          -3.1743    1.0718    3.2696 H       1  UNL1        0.0569
     48 H           2.6818   -2.7992    2.8024 H       1  UNL1        0.0572
     49 H          -0.0449   -2.0181    2.1120 H       1  UNL1        0.0350
     50 H           0.5295   -2.4543    3.6488 H       1  UNL1        0.0350
     51 H          -0.0391    5.1518   -2.3128 H       1  UNL1        0.0595
     52 H           1.1636    6.4413   -2.1497 H       1  UNL1        0.0595
     53 H           2.8339    3.2845   -0.7048 H       1  UNL1        0.0595
     54 H           1.9941    3.5406   -2.2334 H       1  UNL1        0.0595
     55 H          -4.5569    0.0928    1.8214 H       1  UNL1        0.0572
     56 H          -3.8519   -0.5458   -0.3076 H       1  UNL1        0.0350
     57 H          -2.2611   -0.8700    0.1975 H       1  UNL1        0.0350
     58 H           0.4521   -4.7265    3.0094 H       1  UNL1        0.0572
     59 H          -1.4619   -4.2827   -0.4253 H       1  UNL1        0.0350
     60 H          -1.0400   -2.7643    0.2356 H       1  UNL1        0.0350
     61 H          -4.6934   -2.4506    0.8240 H       1  UNL1        0.0572
     62 H          -1.1530   -5.3870    1.6136 H       1  UNL1        0.0572
     63 H          -3.5162   -4.3156    0.7881 H       1  UNL1        0.0572
     64 H          -0.9068    7.0704   -1.5952 H       1  UNL1        0.2096
     65 H           4.1135    4.2539   -2.2413 H       1  UNL1        0.2096
@<TRIPOS>BOND
     1     1    14    1
     2     1    15    1
     3     2    19    1
     4     2    64    1
     5     3    20    1
     6     3    65    1
     7     4    15    2
     8     5     6    1
     9     5     7    1
    10     5    28    1
    11     5    29    1
    12     6     8    1
    13     6    30    1
    14     6    31    1
    15     7    12    1
    16     7    32    1
    17     7    33    1
    18     8    13    1
    19     8    34    1
    20     8    35    1
    21     9    10    1
    22     9    11    1
    23     9    36    1
    24     9    37    1
    25    10    15    1
    26    10    38    1
    27    10    39    1
    28    11    17    1
    29    11    40    1
    30    11    41    1
    31    12    16    2
    32    12    42    1
    33    13    43    1
    34    13    44    1
    35    13    45    1
    36    14    19    1
    37    14    20    1
    38    14    46    1
    39    16    18    1
    40    16    48    1
    41    17    21    2
    42    17    47    1
    43    18    23    1
    44    18    49    1
    45    18    50    1
    46    19    51    1
    47    19    52    1
    48    20    53    1
    49    20    54    1
    50    21    22    1
    51    21    55    1
    52    22    25    1
    53    22    56    1
    54    22    57    1
    55    23    26    2
    56    23    58    1
    57    24    26    1
    58    24    27    1
    59    24    59    1
    60    24    60    1
    61    25    27    2
    62    25    61    1
    63    26    62    1
    64    27    63    1
