5282280
  Marvin  12300716493D          

 65 64  0  0  0  0            999 V2000
    0.4759    4.0759    0.0218 O   0  0  0  0  0  0  0  0  0  0  0  0
   -0.4386    6.5686   -0.8949 O   0  0  0  0  0  0  0  0  0  0  0  0
    3.4935    4.8696   -1.7972 O   0  0  0  0  0  0  0  0  0  0  0  0
    1.4376    3.6481    1.9040 O   0  0  0  0  0  0  0  0  0  0  0  0
    1.8668   -1.8778   -1.2697 C   0  0  0  0  0  0  0  0  0  0  0  0
    0.9586   -1.4079   -2.4368 C   0  0  0  0  0  0  0  0  0  0  0  0
    1.7241   -1.0772    0.0517 C   0  0  0  0  0  0  0  0  0  0  0  0
    1.1797   -2.2204   -3.7403 C   0  0  0  0  0  0  0  0  0  0  0  0
   -0.4163    1.6396    2.6461 C   0  0  0  0  0  0  0  0  0  0  0  0
   -0.4883    2.4553    1.3263 C   0  0  0  0  0  0  0  0  0  0  0  0
   -1.3184    0.3836    2.6574 C   0  0  0  0  0  0  0  0  0  0  0  0
    2.4513   -1.7170    1.1411 C   0  0  0  0  0  0  0  0  0  0  0  0
    0.2652   -1.8123   -4.9149 C   0  0  0  0  0  0  0  0  0  0  0  0
    1.3316    4.8828   -0.6264 C   0  0  2  0  0  0  0  0  0  0  0  0
    0.5386    3.4512    1.0961 C   0  0  0  0  0  0  0  0  0  0  0  0
    1.9910   -2.4265    2.1896 C   0  0  0  0  0  0  0  0  0  0  0  0
   -2.7603    0.5009    2.5672 C   0  0  0  0  0  0  0  0  0  0  0  0
    0.6212   -2.7028    2.5876 C   0  0  0  0  0  0  0  0  0  0  0  0
    0.5078    5.7675   -1.5947 C   0  0  0  0  0  0  0  0  0  0  0  0
    2.4152    4.0490   -1.3628 C   0  0  0  0  0  0  0  0  0  0  0  0
   -3.5876   -0.0896    1.6829 C   0  0  0  0  0  0  0  0  0  0  0  0
   -3.2893   -0.9499    0.5381 C   0  0  0  0  0  0  0  0  0  0  0  0
    0.0822   -4.0356    2.3949 C   0  0  0  0  0  0  0  0  0  0  0  0
   -1.5610   -3.6837    0.4835 C   0  0  0  0  0  0  0  0  0  0  0  0
   -3.7102   -2.3358    0.7007 C   0  0  0  0  0  0  0  0  0  0  0  0
   -0.8780   -4.4326    1.5365 C   0  0  0  0  0  0  0  0  0  0  0  0
   -2.9907   -3.4749    0.6789 C   0  0  0  0  0  0  0  0  0  0  0  0
    1.6337   -2.9290   -1.0737 H   0  0  0  0  0  0  0  0  0  0  0  0
    2.9108   -1.8269   -1.5937 H   0  0  0  0  0  0  0  0  0  0  0  0
   -0.0873   -1.5063   -2.1322 H   0  0  0  0  0  0  0  0  0  0  0  0
    1.1459   -0.3495   -2.6375 H   0  0  0  0  0  0  0  0  0  0  0  0
    2.1174   -0.0662   -0.0932 H   0  0  0  0  0  0  0  0  0  0  0  0
    0.6671   -0.9453    0.2670 H   0  0  0  0  0  0  0  0  0  0  0  0
    1.0146   -3.2824   -3.5382 H   0  0  0  0  0  0  0  0  0  0  0  0
    2.2182   -2.1061   -4.0628 H   0  0  0  0  0  0  0  0  0  0  0  0
   -0.6388    2.2760    3.5056 H   0  0  0  0  0  0  0  0  0  0  0  0
    0.6117    1.2800    2.7746 H   0  0  0  0  0  0  0  0  0  0  0  0
   -0.4256    1.7583    0.4848 H   0  0  0  0  0  0  0  0  0  0  0  0
   -1.4677    2.9376    1.2807 H   0  0  0  0  0  0  0  0  0  0  0  0
   -0.9641   -0.1713    1.8064 H   0  0  0  0  0  0  0  0  0  0  0  0
   -1.0966   -0.1974    3.5571 H   0  0  0  0  0  0  0  0  0  0  0  0
    3.4410   -1.6190    1.0816 H   0  0  0  0  0  0  0  0  0  0  0  0
    0.4948   -2.4188   -5.7936 H   0  0  0  0  0  0  0  0  0  0  0  0
   -0.7849   -1.9668   -4.6597 H   0  0  0  0  0  0  0  0  0  0  0  0
    0.4141   -0.7632   -5.1763 H   0  0  0  0  0  0  0  0  0  0  0  0
    1.8250    5.5555    0.0843 H   0  0  0  0  0  0  0  0  0  0  0  0
   -3.1743    1.0718    3.2696 H   0  0  0  0  0  0  0  0  0  0  0  0
    2.6818   -2.7992    2.8024 H   0  0  0  0  0  0  0  0  0  0  0  0
   -0.0449   -2.0181    2.1120 H   0  0  0  0  0  0  0  0  0  0  0  0
    0.5295   -2.4543    3.6488 H   0  0  0  0  0  0  0  0  0  0  0  0
   -0.0391    5.1518   -2.3128 H   0  0  0  0  0  0  0  0  0  0  0  0
    1.1636    6.4413   -2.1497 H   0  0  0  0  0  0  0  0  0  0  0  0
    2.8339    3.2845   -0.7048 H   0  0  0  0  0  0  0  0  0  0  0  0
    1.9941    3.5406   -2.2334 H   0  0  0  0  0  0  0  0  0  0  0  0
   -4.5569    0.0928    1.8214 H   0  0  0  0  0  0  0  0  0  0  0  0
   -3.8519   -0.5458   -0.3076 H   0  0  0  0  0  0  0  0  0  0  0  0
   -2.2611   -0.8700    0.1975 H   0  0  0  0  0  0  0  0  0  0  0  0
    0.4521   -4.7265    3.0094 H   0  0  0  0  0  0  0  0  0  0  0  0
   -1.4619   -4.2827   -0.4253 H   0  0  0  0  0  0  0  0  0  0  0  0
   -1.0400   -2.7643    0.2356 H   0  0  0  0  0  0  0  0  0  0  0  0
   -4.6934   -2.4506    0.8240 H   0  0  0  0  0  0  0  0  0  0  0  0
   -1.1530   -5.3870    1.6136 H   0  0  0  0  0  0  0  0  0  0  0  0
   -3.5162   -4.3156    0.7881 H   0  0  0  0  0  0  0  0  0  0  0  0
   -0.9068    7.0704   -1.5952 H   0  0  0  0  0  0  0  0  0  0  0  0
    4.1135    4.2539   -2.2413 H   0  0  0  0  0  0  0  0  0  0  0  0
  1 14  1  0  0  0  0
  1 15  1  0  0  0  0
  2 19  1  0  0  0  0
  2 64  1  0  0  0  0
  3 20  1  0  0  0  0
  3 65  1  0  0  0  0
  4 15  2  0  0  0  0
  5  6  1  0  0  0  0
  5  7  1  0  0  0  0
  5 28  1  0  0  0  0
  5 29  1  0  0  0  0
  6  8  1  0  0  0  0
  6 30  1  0  0  0  0
  6 31  1  0  0  0  0
  7 12  1  0  0  0  0
  7 32  1  0  0  0  0
  7 33  1  0  0  0  0
  8 13  1  0  0  0  0
  8 34  1  0  0  0  0
  8 35  1  0  0  0  0
  9 10  1  0  0  0  0
  9 11  1  0  0  0  0
  9 36  1  0  0  0  0
  9 37  1  0  0  0  0
 10 15  1  0  0  0  0
 10 38  1  0  0  0  0
 10 39  1  0  0  0  0
 11 17  1  0  0  0  0
 11 40  1  0  0  0  0
 11 41  1  0  0  0  0
 12 16  2  0  0  0  0
 12 42  1  0  0  0  0
 13 43  1  0  0  0  0
 13 44  1  0  0  0  0
 13 45  1  0  0  0  0
 14 19  1  0  0  0  0
 14 20  1  0  0  0  0
 14 46  1  0  0  0  0
 16 18  1  0  0  0  0
 16 48  1  0  0  0  0
 17 21  2  0  0  0  0
 17 47  1  0  0  0  0
 18 23  1  0  0  0  0
 18 49  1  0  0  0  0
 18 50  1  0  0  0  0
 19 51  1  0  0  0  0
 19 52  1  0  0  0  0
 20 53  1  0  0  0  0
 20 54  1  0  0  0  0
 21 22  1  0  0  0  0
 21 55  1  0  0  0  0
 22 25  1  0  0  0  0
 22 56  1  0  0  0  0
 22 57  1  0  0  0  0
 23 26  2  0  0  0  0
 23 58  1  0  0  0  0
 24 26  1  0  0  0  0
 24 27  1  0  0  0  0
 24 59  1  0  0  0  0
 24 60  1  0  0  0  0
 25 27  2  0  0  0  0
 25 61  1  0  0  0  0
 26 62  1  0  0  0  0
 27 63  1  0  0  0  0
M  END

> <StdInChI>
InChI=1S/C23H38O4/c1-2-3-4-5-6-7-8-9-10-11-12-13-14-15-16-17-18-19-23(26)27-22(20-24)21-25/h6-7,9-10,12-13,15-16,22,24-25H,2-5,8,11,14,17-21H2,1H3/b7-6-,10-9-,13-12-,16-15-

> <StdInChIKey>
RCRCTBLIHCHWDZ-DOFZRALJSA-N

> <AuxInfo>
1/0/N:13,8,6,5,7,12,16,18,23,26,24,27,25,22,21,17,11,9,10,19,20,14,15,2,3,4,1/E:(20,21)(24,25)/rA:65nOOOOCCCCCCCCCCCCCCCCCCCCCCCHHHHHHHHHHHHHHHHHHHHHHHHHHHHHHHHHHHHHH/rB:;;;;s5;s5;s6;;s9;s9;s7;s8;s1;s1d4s10;d12;s11;s16;s2s14;s3s14;d17;s21;s18;;s22;d23s24;s24d25;s5;s5;s6;s6;s7;s7;s8;s8;s9;s9;s10;s10;s11;s11;s12;s13;s13;s13;s14;s17;s16;s18;s18;s19;s19;s20;s20;s21;s22;s22;s23;s24;s24;s25;s26;s27;s2;s3;/rC:.4759,4.0759,.0218;-.4386,6.5686,-.8949;3.4935,4.8696,-1.7972;1.4376,3.6481,1.904;1.8668,-1.8778,-1.2697;.9586,-1.4079,-2.4368;1.7241,-1.0772,.0517;1.1797,-2.2204,-3.7403;-.4163,1.6396,2.6461;-.4883,2.4553,1.3263;-1.3184,.3836,2.6574;2.4513,-1.717,1.1411;.2652,-1.8123,-4.9149;1.3316,4.8828,-.6264;.5386,3.4512,1.0961;1.991,-2.4265,2.1896;-2.7603,.5009,2.5672;.6212,-2.7028,2.5876;.5078,5.7675,-1.5947;2.4152,4.049,-1.3628;-3.5876,-.0896,1.6829;-3.2893,-.9499,.5381;.0822,-4.0356,2.3949;-1.561,-3.6837,.4835;-3.7102,-2.3358,.7007;-.878,-4.4326,1.5365;-2.9907,-3.4749,.6789;1.6337,-2.929,-1.0737;2.9108,-1.8269,-1.5937;-.0873,-1.5063,-2.1322;1.1459,-.3495,-2.6375;2.1174,-.0662,-.0932;.6671,-.9453,.267;1.0146,-3.2824,-3.5382;2.2182,-2.1061,-4.0628;-.6388,2.276,3.5056;.6117,1.28,2.7746;-.4256,1.7583,.4848;-1.4677,2.9376,1.2807;-.9641,-.1713,1.8064;-1.0966,-.1974,3.5571;3.441,-1.619,1.0816;.4948,-2.4188,-5.7936;-.7849,-1.9668,-4.6597;.4141,-.7632,-5.1763;1.825,5.5555,.0843;-3.1743,1.0718,3.2696;2.6818,-2.7992,2.8024;-.0449,-2.0181,2.112;.5295,-2.4543,3.6488;-.0391,5.1518,-2.3128;1.1636,6.4413,-2.1497;2.8339,3.2845,-.7048;1.9941,3.5406,-2.2334;-4.5569,.0928,1.8214;-3.8519,-.5458,-.3076;-2.2611,-.87,.1975;.4521,-4.7265,3.0094;-1.4619,-4.2827,-.4253;-1.04,-2.7643,.2356;-4.6934,-2.4506,.824;-1.153,-5.387,1.6136;-3.5162,-4.3156,.7881;-.9068,7.0704,-1.5952;4.1135,4.2539,-2.2413;

> <Formula>
C23 H38 O4

> <Mw>
378.5454

> <SMILES>
O(C(C([H])([H])C([H])([H])C([H])([H])/C(/[H])=C(/[H])\C([H])([H])/C(/[H])=C(/[H])\C([H])([H])/C(/[H])=C(/[H])\C([H])([H])/C(/[H])=C(/[H])\C([H])([H])C([H])([H])C([H])([H])C([H])([H])C([H])([H])[H])=O)C([H])(C([H])([H])O[H])C([H])([H])O[H]

> <CSID>
4445451

$$$$
