6483057
  Marvin  12300719143D          

 66 65  0  0  0  0            999 V2000
    3.2991    2.2210   -0.1925 O   0  0  0  0  0  0  0  0  0  0  0  0
    5.9131    2.1779   -1.1967 O   0  0  0  0  0  0  0  0  0  0  0  0
    3.6804    5.8619   -0.9677 O   0  0  0  0  0  0  0  0  0  0  0  0
    2.1090    0.5810    1.1466 C   0  0  0  0  0  0  0  0  0  0  0  0
    1.3943    0.2761    2.4878 C   0  0  0  0  0  0  0  0  0  0  0  0
    2.5116    2.0621    0.9991 C   0  0  0  0  0  0  0  0  0  0  0  0
   -2.7253    0.5880   -1.3517 C   0  0  0  0  0  0  0  0  0  0  0  0
   -1.8528    0.0202   -2.5027 C   0  0  0  0  0  0  0  0  0  0  0  0
    0.7962   -1.1455    2.5715 C   0  0  0  0  0  0  0  0  0  0  0  0
    3.9808    3.4723   -0.4121 C   0  0  1  0  0  0  0  0  0  0  0  0
   -2.0014    0.8721   -0.0073 C   0  0  0  0  0  0  0  0  0  0  0  0
   -2.6522   -0.1749   -3.8201 C   0  0  0  0  0  0  0  0  0  0  0  0
    1.6730   -2.2917    2.4491 C   0  0  0  0  0  0  0  0  0  0  0  0
    5.0072    3.2212   -1.5437 C   0  0  0  0  0  0  0  0  0  0  0  0
    3.0028    4.6327   -0.7315 C   0  0  0  0  0  0  0  0  0  0  0  0
   -2.9591    1.2246    1.0344 C   0  0  0  0  0  0  0  0  0  0  0  0
   -1.8391   -0.7558   -4.9964 C   0  0  0  0  0  0  0  0  0  0  0  0
    1.6380   -3.2487    1.5038 C   0  0  0  0  0  0  0  0  0  0  0  0
    0.7582   -3.3712    0.3434 C   0  0  0  0  0  0  0  0  0  0  0  0
   -3.3734    0.5302    2.1103 C   0  0  0  0  0  0  0  0  0  0  0  0
   -2.9286   -0.7604    2.6069 C   0  0  0  0  0  0  0  0  0  0  0  0
   -0.2843   -4.3735    0.5235 C   0  0  0  0  0  0  0  0  0  0  0  0
   -3.7350   -1.9368    2.3385 C   0  0  0  0  0  0  0  0  0  0  0  0
   -2.4790   -3.0814    0.4385 C   0  0  0  0  0  0  0  0  0  0  0  0
   -1.6246   -4.2567    0.5596 C   0  0  0  0  0  0  0  0  0  0  0  0
   -3.5177   -2.9310    1.4550 C   0  0  0  0  0  0  0  0  0  0  0  0
    1.4589    0.3185    0.3066 H   0  0  0  0  0  0  0  0  0  0  0  0
    3.0042   -0.0421    1.0785 H   0  0  0  0  0  0  0  0  0  0  0  0
    2.0751    0.4395    3.3265 H   0  0  0  0  0  0  0  0  0  0  0  0
    0.5659    0.9835    2.6077 H   0  0  0  0  0  0  0  0  0  0  0  0
    3.0808    2.3666    1.8815 H   0  0  0  0  0  0  0  0  0  0  0  0
    1.6045    2.6686    0.9366 H   0  0  0  0  0  0  0  0  0  0  0  0
   -3.5356   -0.1257   -1.1730 H   0  0  0  0  0  0  0  0  0  0  0  0
   -3.1805    1.5225   -1.6941 H   0  0  0  0  0  0  0  0  0  0  0  0
   -1.4383   -0.9432   -2.1929 H   0  0  0  0  0  0  0  0  0  0  0  0
   -1.0144    0.6967   -2.6887 H   0  0  0  0  0  0  0  0  0  0  0  0
    0.0788   -1.1722    1.7685 H   0  0  0  0  0  0  0  0  0  0  0  0
    0.2441   -1.2423    3.5107 H   0  0  0  0  0  0  0  0  0  0  0  0
    4.5563    3.7405    0.4802 H   0  0  0  0  0  0  0  0  0  0  0  0
   -1.2980    1.6988   -0.1408 H   0  0  0  0  0  0  0  0  0  0  0  0
   -1.3830    0.0209    0.2585 H   0  0  0  0  0  0  0  0  0  0  0  0
   -3.4980   -0.8431   -3.6348 H   0  0  0  0  0  0  0  0  0  0  0  0
   -3.0614    0.7880   -4.1382 H   0  0  0  0  0  0  0  0  0  0  0  0
    2.3581   -2.3758    3.1666 H   0  0  0  0  0  0  0  0  0  0  0  0
    4.5005    2.9430   -2.4703 H   0  0  0  0  0  0  0  0  0  0  0  0
    5.6007    4.1183   -1.7308 H   0  0  0  0  0  0  0  0  0  0  0  0
    2.3944    4.3885   -1.6046 H   0  0  0  0  0  0  0  0  0  0  0  0
    2.3324    4.8059    0.1116 H   0  0  0  0  0  0  0  0  0  0  0  0
   -3.3767    2.1206    0.9091 H   0  0  0  0  0  0  0  0  0  0  0  0
   -2.4763   -0.8499   -5.8787 H   0  0  0  0  0  0  0  0  0  0  0  0
   -1.4526   -1.7462   -4.7493 H   0  0  0  0  0  0  0  0  0  0  0  0
   -1.0022   -0.1027   -5.2498 H   0  0  0  0  0  0  0  0  0  0  0  0
    2.3073   -3.9795    1.6079 H   0  0  0  0  0  0  0  0  0  0  0  0
    1.3805   -3.6891   -0.4977 H   0  0  0  0  0  0  0  0  0  0  0  0
    0.3684   -2.4173   -0.0070 H   0  0  0  0  0  0  0  0  0  0  0  0
   -4.0717    0.9675    2.6701 H   0  0  0  0  0  0  0  0  0  0  0  0
   -2.8050   -0.6777    3.6909 H   0  0  0  0  0  0  0  0  0  0  0  0
   -1.9316   -0.9448    2.2760 H   0  0  0  0  0  0  0  0  0  0  0  0
    0.0679   -5.3026    0.6145 H   0  0  0  0  0  0  0  0  0  0  0  0
   -4.5406   -2.0242    2.9185 H   0  0  0  0  0  0  0  0  0  0  0  0
   -3.0056   -3.1799   -0.5144 H   0  0  0  0  0  0  0  0  0  0  0  0
   -1.8898   -2.1813    0.3305 H   0  0  0  0  0  0  0  0  0  0  0  0
    6.5289    2.1094   -1.9566 H   0  0  0  0  0  0  0  0  0  0  0  0
    2.9676    6.5170   -1.1219 H   0  0  0  0  0  0  0  0  0  0  0  0
   -2.1238   -5.1137    0.6666 H   0  0  0  0  0  0  0  0  0  0  0  0
   -4.1813   -3.6747    1.4801 H   0  0  0  0  0  0  0  0  0  0  0  0
  1  6  1  0  0  0  0
  1 10  1  0  0  0  0
  2 14  1  0  0  0  0
  2 63  1  0  0  0  0
  3 15  1  0  0  0  0
  3 64  1  0  0  0  0
  4  5  1  0  0  0  0
  4  6  1  0  0  0  0
  4 27  1  0  0  0  0
  4 28  1  0  0  0  0
  5  9  1  0  0  0  0
  5 29  1  0  0  0  0
  5 30  1  0  0  0  0
  6 31  1  0  0  0  0
  6 32  1  0  0  0  0
  7  8  1  0  0  0  0
  7 11  1  0  0  0  0
  7 33  1  0  0  0  0
  7 34  1  0  0  0  0
  8 12  1  0  0  0  0
  8 35  1  0  0  0  0
  8 36  1  0  0  0  0
  9 13  1  0  0  0  0
  9 37  1  0  0  0  0
  9 38  1  0  0  0  0
 10 14  1  0  0  0  0
 10 15  1  0  0  0  0
 10 39  1  0  0  0  0
 11 16  1  0  0  0  0
 11 40  1  0  0  0  0
 11 41  1  0  0  0  0
 12 17  1  0  0  0  0
 12 42  1  0  0  0  0
 12 43  1  0  0  0  0
 13 18  2  0  0  0  0
 13 44  1  0  0  0  0
 14 45  1  0  0  0  0
 14 46  1  0  0  0  0
 15 47  1  0  0  0  0
 15 48  1  0  0  0  0
 16 20  2  0  0  0  0
 16 49  1  0  0  0  0
 17 50  1  0  0  0  0
 17 51  1  0  0  0  0
 17 52  1  0  0  0  0
 18 19  1  0  0  0  0
 18 53  1  0  0  0  0
 19 22  1  0  0  0  0
 19 54  1  0  0  0  0
 19 55  1  0  0  0  0
 20 21  1  0  0  0  0
 20 56  1  0  0  0  0
 21 23  1  0  0  0  0
 21 57  1  0  0  0  0
 21 58  1  0  0  0  0
 22 25  2  0  0  0  0
 22 59  1  0  0  0  0
 23 26  2  0  0  0  0
 23 60  1  0  0  0  0
 24 25  1  0  0  0  0
 24 26  1  0  0  0  0
 24 61  1  0  0  0  0
 24 62  1  0  0  0  0
 25 65  1  0  0  0  0
 26 66  1  0  0  0  0
M  END

> <StdInChI>
InChI=1S/C23H40O3/c1-2-3-4-5-6-7-8-9-10-11-12-13-14-15-16-17-18-19-20-26-23(21-24)22-25/h6-7,9-10,12-13,15-16,23-25H,2-5,8,11,14,17-22H2,1H3/b7-6-,10-9-,13-12-,16-15-

> <StdInChIKey>
CUJUUWXZAQHCNC-DOFZRALJSA-N

> <AuxInfo>
1/0/N:17,12,8,7,11,16,20,21,23,26,24,25,22,19,18,13,9,5,4,6,14,15,10,2,3,1/E:(21,22)(24,25)/rA:66nOOOCCCCCCCCCCCCCCCCCCCCCCCHHHHHHHHHHHHHHHHHHHHHHHHHHHHHHHHHHHHHHHH/rB:;;;s4;s1s4;;s7;s5;s1;s7;s8;s9;s2s10;s3s10;s11;s12;d13;s18;d16;s20;s19;s21;;d22s24;d23s24;s4;s4;s5;s5;s6;s6;s7;s7;s8;s8;s9;s9;s10;s11;s11;s12;s12;s13;s14;s14;s15;s15;s16;s17;s17;s17;s18;s19;s19;s20;s21;s21;s22;s23;s24;s24;s2;s3;s25;s26;/rC:3.2991,2.221,-.1925;5.9131,2.1779,-1.1967;3.6804,5.8619,-.9677;2.109,.581,1.1466;1.3943,.2761,2.4878;2.5116,2.0621,.9991;-2.7253,.588,-1.3517;-1.8528,.0202,-2.5027;.7962,-1.1455,2.5715;3.9808,3.4723,-.4121;-2.0014,.8721,-.0073;-2.6522,-.1749,-3.8201;1.673,-2.2917,2.4491;5.0072,3.2212,-1.5437;3.0028,4.6327,-.7315;-2.9591,1.2246,1.0344;-1.8391,-.7558,-4.9964;1.638,-3.2487,1.5038;.7582,-3.3712,.3434;-3.3734,.5302,2.1103;-2.9286,-.7604,2.6069;-.2843,-4.3735,.5235;-3.735,-1.9368,2.3385;-2.479,-3.0814,.4385;-1.6246,-4.2567,.5596;-3.5177,-2.931,1.455;1.4589,.3185,.3066;3.0042,-.0421,1.0785;2.0751,.4395,3.3265;.5659,.9835,2.6077;3.0808,2.3666,1.8815;1.6045,2.6686,.9366;-3.5356,-.1257,-1.173;-3.1805,1.5225,-1.6941;-1.4383,-.9432,-2.1929;-1.0144,.6967,-2.6887;.0788,-1.1722,1.7685;.2441,-1.2423,3.5107;4.5563,3.7405,.4802;-1.298,1.6988,-.1408;-1.383,.0209,.2585;-3.498,-.8431,-3.6348;-3.0614,.788,-4.1382;2.3581,-2.3758,3.1666;4.5005,2.943,-2.4703;5.6007,4.1183,-1.7308;2.3944,4.3885,-1.6046;2.3324,4.8059,.1116;-3.3767,2.1206,.9091;-2.4763,-.8499,-5.8787;-1.4526,-1.7462,-4.7493;-1.0022,-.1027,-5.2498;2.3073,-3.9795,1.6079;1.3805,-3.6891,-.4977;.3684,-2.4173,-.007;-4.0717,.9675,2.6701;-2.805,-.6777,3.6909;-1.9316,-.9448,2.276;.0679,-5.3026,.6145;-4.5406,-2.0242,2.9185;-3.0056,-3.1799,-.5144;-1.8898,-2.1813,.3305;6.5289,2.1094,-1.9566;2.9676,6.517,-1.1219;-2.1238,-5.1137,.6666;-4.1813,-3.6747,1.4801;

> <Formula>
C23 H40 O3

> <Mw>
364.5619

> <SMILES>
O(C([H])(C([H])([H])O[H])C([H])([H])O[H])C([H])([H])C([H])([H])C([H])([H])C([H])([H])/C(/[H])=C(/[H])\C([H])([H])/C(/[H])=C(/[H])\C([H])([H])/C(/[H])=C(/[H])\C([H])([H])/C(/[H])=C(/[H])\C([H])([H])C([H])([H])C([H])([H])C([H])([H])C([H])([H])[H]

> <CSID>
4983515

$$$$
