@<TRIPOS>MOLECULE
5281969
 62 61 0 0 0
SMALL
GASTEIGER

@<TRIPOS>ATOM
      1 O           1.1990    3.7116   -0.7198 O.2     1  UNL1       -0.2758
      2 O           3.4884    5.6183    3.2342 O.3     1  UNL1       -0.3935
      3 N           0.6260    4.6508    1.1946 N.am    1  UNL1       -0.3131
      4 C           1.8629   -1.6307   -1.9955 C.3     1  UNL1       -0.0496
      5 C           0.9585   -1.1366   -3.1554 C.3     1  UNL1       -0.0530
      6 C           1.7160   -0.8554   -0.6599 C.3     1  UNL1       -0.0348
      7 C           1.1670   -1.9395   -4.4667 C.3     1  UNL1       -0.0559
      8 C          -0.4658    1.9830    1.7486 C.3     1  UNL1       -0.0414
      9 C          -1.3211    0.6998    1.8246 C.3     1  UNL1       -0.0343
     10 C          -0.5890    2.7798    0.4186 C.3     1  UNL1        0.0242
     11 C           2.4455   -1.5089    0.4184 C.2     1  UNL1       -0.0876
     12 C           0.2451   -1.5200   -5.6313 C.3     1  UNL1       -0.0653
     13 C           1.9833   -2.2058    1.4731 C.2     1  UNL1       -0.0842
     14 C          -2.7643    0.8040    1.7799 C.2     1  UNL1       -0.0876
     15 C           0.4644    3.7659    0.2598 C.2     1  UNL1        0.2131
     16 C           0.6121   -2.4576    1.8836 C.3     1  UNL1       -0.0165
     17 C          -3.6113    0.2053    0.9213 C.2     1  UNL1       -0.0842
     18 C          -3.3327   -0.6667   -0.2171 C.3     1  UNL1       -0.0165
     19 C           1.7612    5.3933    1.5129 C.3     1  UNL1        0.0348
     20 C           0.0779   -3.7859    1.6612 C.2     1  UNL1       -0.0839
     21 C          -1.5619   -3.3949   -0.2462 C.3     1  UNL1       -0.0165
     22 C          -3.7134   -2.0526    0.0185 C.2     1  UNL1       -0.0839
     23 C          -0.8724   -4.1678    0.7835 C.2     1  UNL1       -0.0839
     24 C          -2.9814   -3.1837    0.0044 C.2     1  UNL1       -0.0839
     25 C           2.3011    4.9199    2.8799 C.3     1  UNL1        0.0597
     26 H           1.6279   -2.6850   -1.8189 H       1  UNL1        0.0268
     27 H           2.9077   -1.5745   -2.3156 H       1  UNL1        0.0268
     28 H          -0.0883   -1.2236   -2.8502 H       1  UNL1        0.0265
     29 H           1.1600   -0.0789   -3.3455 H       1  UNL1        0.0265
     30 H           2.0987    0.1623   -0.7825 H       1  UNL1        0.0307
     31 H           0.6580   -0.7415   -0.4447 H       1  UNL1        0.0307
     32 H           0.9988   -3.0023   -4.2717 H       1  UNL1        0.0263
     33 H           2.2039   -1.8269   -4.7951 H       1  UNL1        0.0263
     34 H          -0.7030    2.6246    2.6016 H       1  UNL1        0.0273
     35 H           0.5773    1.6674    1.8736 H       1  UNL1        0.0273
     36 H          -0.9710    0.1084    0.9940 H       1  UNL1        0.0307
     37 H          -1.0641    0.1685    2.7457 H       1  UNL1        0.0307
     38 H          -0.5723    2.0771   -0.4212 H       1  UNL1        0.0358
     39 H          -1.5600    3.2796    0.3890 H       1  UNL1        0.0358
     40 H           3.4366   -1.4326    0.3445 H       1  UNL1        0.0569
     41 H           0.4645   -2.1231   -6.5150 H       1  UNL1        0.0230
     42 H          -0.8036   -1.6708   -5.3684 H       1  UNL1        0.0230
     43 H           0.3972   -0.4702   -5.8882 H       1  UNL1        0.0230
     44 H           2.6739   -2.5942    2.0767 H       1  UNL1        0.0572
     45 H          -3.1639    1.3721    2.4939 H       1  UNL1        0.0569
     46 H          -0.0571   -1.7479    1.4420 H       1  UNL1        0.0350
     47 H           0.5390   -2.2371    2.9527 H       1  UNL1        0.0350
     48 H          -4.5778    0.3839    1.0853 H       1  UNL1        0.0572
     49 H          -3.9443   -0.3005   -1.0478 H       1  UNL1        0.0350
     50 H          -2.3194   -0.5701   -0.6002 H       1  UNL1        0.0350
     51 H          -0.0992    4.7636    1.7752 H       1  UNL1        0.1488
     52 H           1.4725    6.4444    1.5719 H       1  UNL1        0.0484
     53 H           2.5581    5.3093    0.7682 H       1  UNL1        0.0484
     54 H           0.4438   -4.4903    2.2628 H       1  UNL1        0.0572
     55 H          -1.4911   -3.9802   -1.1680 H       1  UNL1        0.0350
     56 H          -1.0417   -2.4718   -0.4836 H       1  UNL1        0.0350
     57 H          -4.6859   -2.1779    0.2036 H       1  UNL1        0.0572
     58 H          -1.1371   -5.1273    0.8338 H       1  UNL1        0.0572
     59 H          -3.4939   -4.0224    0.1764 H       1  UNL1        0.0572
     60 H           1.5589    5.0844    3.6648 H       1  UNL1        0.0573
     61 H           2.5372    3.8532    2.8465 H       1  UNL1        0.0573
     62 H           3.7644    5.2245    4.0891 H       1  UNL1        0.2095
@<TRIPOS>BOND
     1     1    15    2
     2     2    25    1
     3     2    62    1
     4     3    15   am
     5     3    19    1
     6     3    51    1
     7     4     5    1
     8     4     6    1
     9     4    26    1
    10     4    27    1
    11     5     7    1
    12     5    28    1
    13     5    29    1
    14     6    11    1
    15     6    30    1
    16     6    31    1
    17     7    12    1
    18     7    32    1
    19     7    33    1
    20     8     9    1
    21     8    10    1
    22     8    34    1
    23     8    35    1
    24     9    14    1
    25     9    36    1
    26     9    37    1
    27    10    15    1
    28    10    38    1
    29    10    39    1
    30    11    13    2
    31    11    40    1
    32    12    41    1
    33    12    42    1
    34    12    43    1
    35    13    16    1
    36    13    44    1
    37    14    17    2
    38    14    45    1
    39    16    20    1
    40    16    46    1
    41    16    47    1
    42    17    18    1
    43    17    48    1
    44    18    22    1
    45    18    49    1
    46    18    50    1
    47    19    25    1
    48    19    52    1
    49    19    53    1
    50    20    23    2
    51    20    54    1
    52    21    23    1
    53    21    24    1
    54    21    55    1
    55    21    56    1
    56    22    24    2
    57    22    57    1
    58    23    58    1
    59    24    59    1
    60    25    60    1
    61    25    61    1
