5281969
  Marvin  12300716493D          

 62 61  0  0  0  0            999 V2000
    1.1990    3.7116   -0.7198 O   0  0  0  0  0  0  0  0  0  0  0  0
    3.4884    5.6183    3.2342 O   0  0  0  0  0  0  0  0  0  0  0  0
    0.6260    4.6508    1.1946 N   0  0  0  0  0  0  0  0  0  0  0  0
    1.8629   -1.6307   -1.9955 C   0  0  0  0  0  0  0  0  0  0  0  0
    0.9585   -1.1366   -3.1554 C   0  0  0  0  0  0  0  0  0  0  0  0
    1.7160   -0.8554   -0.6599 C   0  0  0  0  0  0  0  0  0  0  0  0
    1.1670   -1.9395   -4.4667 C   0  0  0  0  0  0  0  0  0  0  0  0
   -0.4658    1.9830    1.7486 C   0  0  0  0  0  0  0  0  0  0  0  0
   -1.3211    0.6998    1.8246 C   0  0  0  0  0  0  0  0  0  0  0  0
   -0.5890    2.7798    0.4186 C   0  0  0  0  0  0  0  0  0  0  0  0
    2.4455   -1.5089    0.4184 C   0  0  0  0  0  0  0  0  0  0  0  0
    0.2451   -1.5200   -5.6313 C   0  0  0  0  0  0  0  0  0  0  0  0
    1.9833   -2.2058    1.4731 C   0  0  0  0  0  0  0  0  0  0  0  0
   -2.7643    0.8040    1.7799 C   0  0  0  0  0  0  0  0  0  0  0  0
    0.4644    3.7659    0.2598 C   0  0  0  0  0  0  0  0  0  0  0  0
    0.6121   -2.4576    1.8836 C   0  0  0  0  0  0  0  0  0  0  0  0
   -3.6113    0.2053    0.9213 C   0  0  0  0  0  0  0  0  0  0  0  0
   -3.3327   -0.6667   -0.2171 C   0  0  0  0  0  0  0  0  0  0  0  0
    1.7612    5.3933    1.5129 C   0  0  0  0  0  0  0  0  0  0  0  0
    0.0779   -3.7859    1.6612 C   0  0  0  0  0  0  0  0  0  0  0  0
   -1.5619   -3.3949   -0.2462 C   0  0  0  0  0  0  0  0  0  0  0  0
   -3.7134   -2.0526    0.0185 C   0  0  0  0  0  0  0  0  0  0  0  0
   -0.8724   -4.1678    0.7835 C   0  0  0  0  0  0  0  0  0  0  0  0
   -2.9814   -3.1837    0.0044 C   0  0  0  0  0  0  0  0  0  0  0  0
    2.3011    4.9199    2.8799 C   0  0  0  0  0  0  0  0  0  0  0  0
    1.6279   -2.6850   -1.8189 H   0  0  0  0  0  0  0  0  0  0  0  0
    2.9077   -1.5745   -2.3156 H   0  0  0  0  0  0  0  0  0  0  0  0
   -0.0883   -1.2236   -2.8502 H   0  0  0  0  0  0  0  0  0  0  0  0
    1.1600   -0.0789   -3.3455 H   0  0  0  0  0  0  0  0  0  0  0  0
    2.0987    0.1623   -0.7825 H   0  0  0  0  0  0  0  0  0  0  0  0
    0.6580   -0.7415   -0.4447 H   0  0  0  0  0  0  0  0  0  0  0  0
    0.9988   -3.0023   -4.2717 H   0  0  0  0  0  0  0  0  0  0  0  0
    2.2039   -1.8269   -4.7951 H   0  0  0  0  0  0  0  0  0  0  0  0
   -0.7030    2.6246    2.6016 H   0  0  0  0  0  0  0  0  0  0  0  0
    0.5773    1.6674    1.8736 H   0  0  0  0  0  0  0  0  0  0  0  0
   -0.9710    0.1084    0.9940 H   0  0  0  0  0  0  0  0  0  0  0  0
   -1.0641    0.1685    2.7457 H   0  0  0  0  0  0  0  0  0  0  0  0
   -0.5723    2.0771   -0.4212 H   0  0  0  0  0  0  0  0  0  0  0  0
   -1.5600    3.2796    0.3890 H   0  0  0  0  0  0  0  0  0  0  0  0
    3.4366   -1.4326    0.3445 H   0  0  0  0  0  0  0  0  0  0  0  0
    0.4645   -2.1231   -6.5150 H   0  0  0  0  0  0  0  0  0  0  0  0
   -0.8036   -1.6708   -5.3684 H   0  0  0  0  0  0  0  0  0  0  0  0
    0.3972   -0.4702   -5.8882 H   0  0  0  0  0  0  0  0  0  0  0  0
    2.6739   -2.5942    2.0767 H   0  0  0  0  0  0  0  0  0  0  0  0
   -3.1639    1.3721    2.4939 H   0  0  0  0  0  0  0  0  0  0  0  0
   -0.0571   -1.7479    1.4420 H   0  0  0  0  0  0  0  0  0  0  0  0
    0.5390   -2.2371    2.9527 H   0  0  0  0  0  0  0  0  0  0  0  0
   -4.5778    0.3839    1.0853 H   0  0  0  0  0  0  0  0  0  0  0  0
   -3.9443   -0.3005   -1.0478 H   0  0  0  0  0  0  0  0  0  0  0  0
   -2.3194   -0.5701   -0.6002 H   0  0  0  0  0  0  0  0  0  0  0  0
   -0.0992    4.7636    1.7752 H   0  0  0  0  0  0  0  0  0  0  0  0
    1.4725    6.4444    1.5719 H   0  0  0  0  0  0  0  0  0  0  0  0
    2.5581    5.3093    0.7682 H   0  0  0  0  0  0  0  0  0  0  0  0
    0.4438   -4.4903    2.2628 H   0  0  0  0  0  0  0  0  0  0  0  0
   -1.4911   -3.9802   -1.1680 H   0  0  0  0  0  0  0  0  0  0  0  0
   -1.0417   -2.4718   -0.4836 H   0  0  0  0  0  0  0  0  0  0  0  0
   -4.6859   -2.1779    0.2036 H   0  0  0  0  0  0  0  0  0  0  0  0
   -1.1371   -5.1273    0.8338 H   0  0  0  0  0  0  0  0  0  0  0  0
   -3.4939   -4.0224    0.1764 H   0  0  0  0  0  0  0  0  0  0  0  0
    1.5589    5.0844    3.6648 H   0  0  0  0  0  0  0  0  0  0  0  0
    2.5372    3.8532    2.8465 H   0  0  0  0  0  0  0  0  0  0  0  0
    3.7644    5.2245    4.0891 H   0  0  0  0  0  0  0  0  0  0  0  0
  1 15  2  0  0  0  0
  2 25  1  0  0  0  0
  2 62  1  0  0  0  0
  3 15  1  0  0  0  0
  3 19  1  0  0  0  0
  3 51  1  0  0  0  0
  4  5  1  0  0  0  0
  4  6  1  0  0  0  0
  4 26  1  0  0  0  0
  4 27  1  0  0  0  0
  5  7  1  0  0  0  0
  5 28  1  0  0  0  0
  5 29  1  0  0  0  0
  6 11  1  0  0  0  0
  6 30  1  0  0  0  0
  6 31  1  0  0  0  0
  7 12  1  0  0  0  0
  7 32  1  0  0  0  0
  7 33  1  0  0  0  0
  8  9  1  0  0  0  0
  8 10  1  0  0  0  0
  8 34  1  0  0  0  0
  8 35  1  0  0  0  0
  9 14  1  0  0  0  0
  9 36  1  0  0  0  0
  9 37  1  0  0  0  0
 10 15  1  0  0  0  0
 10 38  1  0  0  0  0
 10 39  1  0  0  0  0
 11 13  2  0  0  0  0
 11 40  1  0  0  0  0
 12 41  1  0  0  0  0
 12 42  1  0  0  0  0
 12 43  1  0  0  0  0
 13 16  1  0  0  0  0
 13 44  1  0  0  0  0
 14 17  2  0  0  0  0
 14 45  1  0  0  0  0
 16 20  1  0  0  0  0
 16 46  1  0  0  0  0
 16 47  1  0  0  0  0
 17 18  1  0  0  0  0
 17 48  1  0  0  0  0
 18 22  1  0  0  0  0
 18 49  1  0  0  0  0
 18 50  1  0  0  0  0
 19 25  1  0  0  0  0
 19 52  1  0  0  0  0
 19 53  1  0  0  0  0
 20 23  2  0  0  0  0
 20 54  1  0  0  0  0
 21 23  1  0  0  0  0
 21 24  1  0  0  0  0
 21 55  1  0  0  0  0
 21 56  1  0  0  0  0
 22 24  2  0  0  0  0
 22 57  1  0  0  0  0
 23 58  1  0  0  0  0
 24 59  1  0  0  0  0
 25 60  1  0  0  0  0
 25 61  1  0  0  0  0
M  END

> <StdInChI>
InChI=1S/C22H37NO2/c1-2-3-4-5-6-7-8-9-10-11-12-13-14-15-16-17-18-19-22(25)23-20-21-24/h6-7,9-10,12-13,15-16,24H,2-5,8,11,14,17-21H2,1H3,(H,23,25)/b7-6-,10-9-,13-12-,16-15-

> <StdInChIKey>
LGEQQWMQCRIYKG-DOFZRALJSA-N

> <AuxInfo>
1/1/N:12,7,5,4,6,11,13,16,20,23,21,24,22,18,17,14,9,8,10,19,25,15,3,2,1/rA:62nOONCCCCCCCCCCCCCCCCCCCCCCHHHHHHHHHHHHHHHHHHHHHHHHHHHHHHHHHHHHH/rB:;;;s4;s4;s5;;s8;s8;s6;s7;d11;s9;d1s3s10;s13;d14;s17;s3;s16;;s18;d20s21;s21d22;s2s19;s4;s4;s5;s5;s6;s6;s7;s7;s8;s8;s9;s9;s10;s10;s11;s12;s12;s12;s13;s14;s16;s16;s17;s18;s18;s3;s19;s19;s20;s21;s21;s22;s23;s24;s25;s25;s2;/rC:1.199,3.7116,-.7198;3.4884,5.6183,3.2342;.626,4.6508,1.1946;1.8629,-1.6307,-1.9955;.9585,-1.1366,-3.1554;1.716,-.8554,-.6599;1.167,-1.9395,-4.4667;-.4658,1.983,1.7486;-1.3211,.6998,1.8246;-.589,2.7798,.4186;2.4455,-1.5089,.4184;.2451,-1.52,-5.6313;1.9833,-2.2058,1.4731;-2.7643,.804,1.7799;.4644,3.7659,.2598;.6121,-2.4576,1.8836;-3.6113,.2053,.9213;-3.3327,-.6667,-.2171;1.7612,5.3933,1.5129;.0779,-3.7859,1.6612;-1.5619,-3.3949,-.2462;-3.7134,-2.0526,.0185;-.8724,-4.1678,.7835;-2.9814,-3.1837,.0044;2.3011,4.9199,2.8799;1.6279,-2.685,-1.8189;2.9077,-1.5745,-2.3156;-.0883,-1.2236,-2.8502;1.16,-.0789,-3.3455;2.0987,.1623,-.7825;.658,-.7415,-.4447;.9988,-3.0023,-4.2717;2.2039,-1.8269,-4.7951;-.703,2.6246,2.6016;.5773,1.6674,1.8736;-.971,.1084,.994;-1.0641,.1685,2.7457;-.5723,2.0771,-.4212;-1.56,3.2796,.389;3.4366,-1.4326,.3445;.4645,-2.1231,-6.515;-.8036,-1.6708,-5.3684;.3972,-.4702,-5.8882;2.6739,-2.5942,2.0767;-3.1639,1.3721,2.4939;-.0571,-1.7479,1.442;.539,-2.2371,2.9527;-4.5778,.3839,1.0853;-3.9443,-.3005,-1.0478;-2.3194,-.5701,-.6002;-.0992,4.7636,1.7752;1.4725,6.4444,1.5719;2.5581,5.3093,.7682;.4438,-4.4903,2.2628;-1.4911,-3.9802,-1.168;-1.0417,-2.4718,-.4836;-4.6859,-2.1779,.2036;-1.1371,-5.1273,.8338;-3.4939,-4.0224,.1764;1.5589,5.0844,3.6648;2.5372,3.8532,2.8465;3.7644,5.2245,4.0891;

> <Formula>
C22 H37 N O2

> <Mw>
347.5347

> <SMILES>
O=C(C([H])([H])C([H])([H])C([H])([H])/C(/[H])=C(/[H])\C([H])([H])/C(/[H])=C(/[H])\C([H])([H])/C(/[H])=C(/[H])\C([H])([H])/C(/[H])=C(/[H])\C([H])([H])C([H])([H])C([H])([H])C([H])([H])C([H])([H])[H])N([H])C([H])([H])C([H])([H])O[H]

> <CSID>
4445241

$$$$
