@<TRIPOS>MOLECULE
439201
 149 153 0 0 0
SMALL
GASTEIGER

@<TRIPOS>ATOM
      1 O          -3.5929    2.9919   -1.4736 O.2     2  PRO2       -0.2735
      2 O          -6.6969    2.5770   -2.0706 O.2     1  ARG1       -0.2739
      3 O          -1.9943    3.4947    1.0951 O.2     3  PRO3       -0.2738
      4 O           6.2387   -2.4312   -0.2534 O.2     6  SER6       -0.2735
      5 O           2.6746   -2.3846    2.3481 O.2     7  PRO7       -0.2738
      6 OG          8.4594    1.2163    0.0163 O.3     6  SER6       -0.3927
      7 O           2.7767    3.6547    0.6992 O.2     4  GLY4       -0.2741
      8 O           3.8444    0.2061    0.8395 O.2     5  PHE5       -0.2738
      9 O           0.1438   -4.0108    0.1903 O.2     8  PHE8       -0.2738
     10 O           0.5100   -7.7218   -0.2003 O.3     9  ARG9       -0.4793
     11 OXT         2.0998   -7.9703   -1.5013 O.2     9  ARG9       -0.2489
     12 N          -2.9686    5.0350   -1.0590 N.am    3  PRO3       -0.2884
     13 N          -5.9021    3.0595   -0.0916 N.am    2  PRO2       -0.2886
     14 N           5.8446   -2.2342    1.8847 N.am    7  PRO7       -0.2883
     15 N           0.0925    3.6776    0.4572 N.am    4  GLY4       -0.3052
     16 N          -9.2093    2.3839   -0.8957 N.3     1  ARG1       -0.3199
     17 N           3.2171   -2.9246    0.2903 N.am    8  PHE8       -0.3022
     18 N           5.9221    0.6398    1.3315 N.am    6  SER6       -0.3005
     19 N           2.7771    2.1242    2.2769 N.am    5  PHE5       -0.3024
     20 NE         -9.8392   -2.9610   -0.0264 N.pl3   1  ARG1       -0.1138
     21 N           1.6083   -4.9904   -1.1199 N.am    9  ARG9       -0.3008
     22 NH1        -8.6249   -4.5896    1.0029 N.pl3   1  ARG1       -0.2893
     23 NH2       -10.8193   -4.5395    1.1242 N.pl3   1  ARG1       -0.2893
     24 NE          0.6985   -3.4331   -6.1221 N.pl3   9  ARG9       -0.1138
     25 NH1         1.1230   -3.7584   -8.3248 N.pl3   9  ARG9       -0.2893
     26 NH2         0.4160   -1.8105   -7.5768 N.pl3   9  ARG9       -0.2893
     27 CA         -5.2259    4.2614   -0.4233 C.3     2  PRO2        0.1025
     28 CB         -5.2616    5.0007    0.9478 C.3     2  PRO2       -0.0243
     29 CA         -1.5944    4.8345   -0.7811 C.3     3  PRO3        0.1023
     30 CG         -5.7082    3.9497    1.9791 C.3     2  PRO2       -0.0350
     31 CD         -5.5283    2.6435    1.1980 C.3     2  PRO2        0.0156
     32 CB         -1.0582    6.2678   -0.5465 C.3     3  PRO3       -0.0243
     33 CD         -3.2650    6.3454   -1.4708 C.3     3  PRO3        0.0156
     34 C          -3.8892    4.0901   -1.0136 C.2     2  PRO2        0.2367
     35 CG         -1.9559    7.1508   -1.4193 C.3     3  PRO3       -0.0350
     36 C          -6.8169    2.4849   -0.8516 C.2     1  ARG1        0.2330
     37 C          -1.1716    3.9522    0.3107 C.2     3  PRO3        0.2340
     38 CA         -7.9881    1.7390   -0.3879 C.3     1  ARG1        0.0826
     39 CA          4.8348   -3.2184    2.0419 C.3     7  PRO7        0.1023
     40 CB         -7.9103    0.2342   -0.7714 C.3     1  ARG1       -0.0263
     41 CB          4.9147   -3.6418    3.5375 C.3     7  PRO7       -0.0243
     42 CG          5.6008   -2.4472    4.2058 C.3     7  PRO7       -0.0350
     43 CD          6.5260   -1.9635    3.0819 C.3     7  PRO7        0.0156
     44 CG         -9.0071   -0.6854   -0.1735 C.3     1  ARG1       -0.0168
     45 CA          0.7032    2.8835    1.4349 C.3     4  GLY4        0.0882
     46 C           6.2048   -1.6992    0.7312 C.2     6  SER6        0.2388
     47 C           3.5070   -2.8180    1.5608 C.2     7  PRO7        0.2342
     48 CA          6.5584   -0.2932    0.4912 C.3     6  SER6        0.1228
     49 CD         -8.8852   -2.1551   -0.6456 C.3     1  ARG1        0.1047
     50 C           2.1547    2.9107    1.4478 C.2     4  GLY4        0.2308
     51 CA          1.9936   -2.7228   -0.3672 C.3     8  PHE8        0.1034
     52 CA          4.1575    1.8846    2.4178 C.3     5  PHE5        0.1034
     53 CB          8.0956   -0.0769    0.4927 C.3     6  SER6        0.0711
     54 C           4.6473    0.8711    1.4812 C.2     5  PHE5        0.2343
     55 CB          2.2046   -2.1810   -1.8140 C.3     8  PHE8       -0.0007
     56 CB          4.4517    1.4892    3.8974 C.3     5  PHE5       -0.0007
     57 C           1.2101   -3.9642   -0.4125 C.2     8  PHE8        0.2343
     58 CG          2.9182   -0.9042   -2.0724 C.ar    8  PHE8       -0.0451
     59 CG          3.8744    2.3654    4.9573 C.ar    5  PHE5       -0.0451
     60 CA          0.8517   -5.9924   -1.7550 C.3     9  ARG9        0.1203
     61 CZ         -9.7346   -4.0168    0.6936 C.cat   1  ARG1        0.3765
     62 CB          1.0975   -5.9853   -3.3001 C.3     9  ARG9       -0.0211
     63 CD1         4.1447   -0.8913   -2.7789 C.ar    8  PHE8       -0.0585
     64 CD2         2.3502    0.3349   -1.6928 C.ar    8  PHE8       -0.0585
     65 CD1         2.9146    1.8716    5.8732 C.ar    5  PHE5       -0.0585
     66 CD2         4.2736    3.7180    5.0771 C.ar    5  PHE5       -0.0585
     67 CG          0.5917   -4.7421   -4.0804 C.3     9  ARG9       -0.0164
     68 C           1.1656   -7.2725   -1.1341 C.2     9  ARG9        0.3253
     69 CE1         4.7847    0.3184   -3.1039 C.ar    8  PHE8       -0.0615
     70 CE2         2.9892    1.5480   -2.0139 C.ar    8  PHE8       -0.0615
     71 CZ          4.2065    1.5390   -2.7169 C.ar    8  PHE8       -0.0617
     72 CE1         2.3654    2.6983    6.8718 C.ar    5  PHE5       -0.0615
     73 CE2         3.7261    4.5508    6.0723 C.ar    5  PHE5       -0.0615
     74 CD          1.0237   -4.6705   -5.5649 C.3     9  ARG9        0.1048
     75 CZ          2.7711    4.0404    6.9688 C.ar    5  PHE5       -0.0617
     76 CZ          0.7526   -3.0232   -7.3369 C.cat   9  ARG9        0.3765
     77 HA         -5.7941    4.8660   -1.1409 H       2  PRO2        0.0597
     78 HB1        -5.9726    5.8325    0.9296 H       2  PRO2        0.0288
     79 HB2        -4.2953    5.4146    1.2478 H       2  PRO2        0.0288
     80 HA         -1.1566    4.4389   -1.7065 H       3  PRO3        0.0597
     81 HG1        -5.1138    3.9692    2.8957 H       2  PRO2        0.0281
     82 HG2        -6.7626    4.0877    2.2405 H       2  PRO2        0.0281
     83 HD1        -4.4838    2.3140    1.2198 H       2  PRO2        0.0465
     84 HD2        -6.0923    1.8308    1.6582 H       2  PRO2        0.0465
     85 HB1        -0.0052    6.3693   -0.8240 H       3  PRO3        0.0288
     86 HB2        -1.1682    6.5725    0.5007 H       3  PRO3        0.0288
     87 HD1        -3.6605    6.3545   -2.4916 H       3  PRO3        0.0465
     88 HD2        -4.0032    6.8269   -0.8241 H       3  PRO3        0.0465
     89 HG1        -1.5252    7.2622   -2.4184 H       3  PRO3        0.0281
     90 HG2        -2.0928    8.1469   -0.9877 H       3  PRO3        0.0281
     91 HA         -8.1040    1.8061    0.6949 H       1  ARG1        0.0554
     92 HA          5.1169   -4.1177    1.4805 H       7  PRO7        0.0597
     93 HB1        -6.9436   -0.1564   -0.4374 H       1  ARG1        0.0286
     94 HB2        -7.9381    0.1463   -1.8612 H       1  ARG1        0.0286
     95 HB1         5.5458   -4.5275    3.6651 H       7  PRO7        0.0288
     96 HB2         3.9541   -3.8653    4.0101 H       7  PRO7        0.0288
     97 HG1         4.8633   -1.6835    4.4595 H       7  PRO7        0.0281
     98 HG2         6.1458   -2.7166    5.1138 H       7  PRO7        0.0281
     99 HD1         7.4615   -2.5339    3.0955 H       7  PRO7        0.0465
    100 HD2         6.7783   -0.9166    3.2615 H       7  PRO7        0.0465
    101 H           0.6628    4.0506   -0.1835 H       4  GLY4        0.1492
    102 HG1        -8.9357   -0.6580    0.9178 H       1  ARG1        0.0297
    103 HG2        -9.9952   -0.3084   -0.4512 H       1  ARG1        0.0297
    104 H1         -9.2229    3.3355   -0.5201 H       1  ARG1        0.1189
    105 H2        -10.0071    1.9006   -0.4781 H       1  ARG1        0.1189
    106 HA1         0.3747    1.8518    1.2765 H       4  GLY4        0.0558
    107 HA2         0.3623    3.2027    2.4245 H       4  GLY4        0.0558
    108 HA          6.2354   -0.0275   -0.5219 H       6  SER6        0.0618
    109 HD1        -9.0684   -2.2124   -1.7209 H       1  ARG1        0.0693
    110 HD2        -7.8651   -2.5099   -0.4716 H       1  ARG1        0.0693
    111 H           3.9220   -3.1932   -0.2622 H       8  PHE8        0.1495
    112 HA          1.4238   -1.9446    0.1555 H       8  PHE8        0.0598
    113 H           6.4915    1.1648    1.8569 H       6  SER6        0.1496
    114 HA          4.7042    2.8118    2.2133 H       5  PHE5        0.0598
    115 HB1         8.5147   -0.2002    1.4934 H       6  SER6        0.0580
    116 HB2         8.5886   -0.7950   -0.1670 H       6  SER6        0.0580
    117 H           2.2262    1.6181    2.8394 H       5  PHE5        0.1495
    118 HB1         1.2175   -2.0405   -2.2647 H       8  PHE8        0.0336
    119 HB2         2.7033   -2.9692   -2.3854 H       8  PHE8        0.0336
    120 HB1         5.5327    1.4524    4.0602 H       5  PHE5        0.0336
    121 HB2         4.0936    0.4670    4.0360 H       5  PHE5        0.0336
    122 H           2.5298   -5.0326   -1.2777 H       9  ARG9        0.1496
    123 H           8.0630    1.8522    0.6479 H       6  SER6        0.2095
    124 HA         -0.2234   -5.8205   -1.6277 H       9  ARG9        0.0614
    125 HB1         0.6072   -6.8554   -3.7475 H       9  ARG9        0.0289
    126 HB2         2.1707   -6.0952   -3.4850 H       9  ARG9        0.0289
    127 HD1         4.5866   -1.7629   -3.0827 H       8  PHE8        0.0620
    128 HD2         1.4622    0.3678   -1.1864 H       8  PHE8        0.0620
    129 HD1         2.5979    0.8997    5.8286 H       5  PHE5        0.0620
    130 HD2         4.9696    4.1129    4.4407 H       5  PHE5        0.0620
    131 HG1        -0.4980   -4.6846   -4.0115 H       9  ARG9        0.0298
    132 HG2         0.9798   -3.8534   -3.6040 H       9  ARG9        0.0298
    133 HE1         5.6646    0.3067   -3.6241 H       8  PHE8        0.0618
    134 HE2         2.5662    2.4370   -1.7420 H       8  PHE8        0.0618
    135 HZ          4.6709    2.4190   -2.9520 H       8  PHE8        0.0618
    136 HH11       -8.6131   -5.3258    1.5834 H       1  ARG1        0.2546
    137 HH12       -7.8206   -4.2732    0.6444 H       1  ARG1        0.2546
    138 HH21      -11.6477   -4.1355    0.9506 H       1  ARG1        0.2546
    139 HH22      -10.7836   -5.3381    1.6101 H       1  ARG1        0.2546
    140 HE1         1.6734    2.3236    7.5245 H       5  PHE5        0.0618
    141 HE2         4.0223    5.5268    6.1450 H       5  PHE5        0.0618
    142 HD1         0.5284   -5.4741   -6.1149 H       9  ARG9        0.0693
    143 HD2         2.1064   -4.8073   -5.6490 H       9  ARG9        0.0693
    144 HZ          2.3715    4.6432    7.6922 H       5  PHE5        0.0618
    145 H          -0.1728   -7.2778    0.1329 H       9  ARG9        0.2951
    146 HH11        1.4396   -4.6267   -8.1722 H       9  ARG9        0.2546
    147 HH12        1.0768   -3.4313   -9.2011 H       9  ARG9        0.2546
    148 HH21        0.2094   -1.2247   -6.8750 H       9  ARG9        0.2546
    149 HH22        0.3853   -1.5006   -8.4600 H       9  ARG9        0.2546
@<TRIPOS>BOND
     1     1    34    2
     2     2    36    2
     3     3    37    2
     4     4    46    2
     5     5    47    2
     6     6    53    1
     7     6   123    1
     8     7    50    2
     9     8    54    2
    10     9    57    2
    11    10    68    1
    12    10   145    1
    13    11    68    2
    14    12    29    1
    15    12    33    1
    16    12    34   am
    17    13    27    1
    18    13    31    1
    19    13    36   am
    20    14    39    1
    21    14    43    1
    22    14    46   am
    23    15    37   am
    24    15    45    1
    25    15   101    1
    26    38    16    1
    27    16   104    1
    28    16   105    1
    29    17    47   am
    30    51    17    1
    31    17   111    1
    32    48    18    1
    33    18    54   am
    34    18   113    1
    35    19    50   am
    36    52    19    1
    37    19   117    1
    38    20    49    1
    39    20    61    2
    40    21    57   am
    41    60    21    1
    42    21   122    1
    43    22    61    1
    44    22   136    1
    45    22   137    1
    46    23    61    1
    47    23   138    1
    48    23   139    1
    49    24    74    1
    50    24    76    2
    51    25    76    1
    52    25   146    1
    53    25   147    1
    54    26    76    1
    55    26   148    1
    56    26   149    1
    57    27    28    1
    58    27    34    1
    59    27    77    1
    60    28    30    1
    61    28    78    1
    62    28    79    1
    63    29    32    1
    64    29    37    1
    65    29    80    1
    66    30    31    1
    67    30    81    1
    68    30    82    1
    69    31    83    1
    70    31    84    1
    71    32    35    1
    72    32    85    1
    73    32    86    1
    74    33    35    1
    75    33    87    1
    76    33    88    1
    77    35    89    1
    78    35    90    1
    79    36    38    1
    80    38    40    1
    81    38    91    1
    82    39    41    1
    83    39    47    1
    84    39    92    1
    85    40    44    1
    86    40    93    1
    87    40    94    1
    88    41    42    1
    89    41    95    1
    90    41    96    1
    91    42    43    1
    92    42    97    1
    93    42    98    1
    94    43    99    1
    95    43   100    1
    96    44    49    1
    97    44   102    1
    98    44   103    1
    99    45    50    1
   100    45   106    1
   101    45   107    1
   102    46    48    1
   103    48    53    1
   104    48   108    1
   105    49   109    1
   106    49   110    1
   107    51    55    1
   108    51    57    1
   109    51   112    1
   110    52    54    1
   111    52    56    1
   112    52   114    1
   113    53   115    1
   114    53   116    1
   115    55    58    1
   116    55   118    1
   117    55   119    1
   118    56    59    1
   119    56   120    1
   120    56   121    1
   121    58    63   ar
   122    58    64   ar
   123    59    65   ar
   124    59    66   ar
   125    60    62    1
   126    60    68    1
   127    60   124    1
   128    62    67    1
   129    62   125    1
   130    62   126    1
   131    63    69   ar
   132    63   127    1
   133    64    70   ar
   134    64   128    1
   135    65    72   ar
   136    65   129    1
   137    66    73   ar
   138    66   130    1
   139    67    74    1
   140    67   131    1
   141    67   132    1
   142    69    71   ar
   143    69   133    1
   144    70    71   ar
   145    70   134    1
   146    71   135    1
   147    72    75   ar
   148    72   140    1
   149    73    75   ar
   150    73   141    1
   151    74   142    1
   152    74   143    1
   153    75   144    1
