@<TRIPOS>MOLECULE
5893
 72 76 0 0 0
SMALL
GASTEIGER

@<TRIPOS>ATOM
      1 P          -0.8265   -2.0836    2.1334 P.3     1  UNL1        0.4835
      2 P          -1.5458   -0.4338    0.2088 P.3     1  UNL1        0.4835
      3 O           0.3699    1.4358    4.0776 O.3     1  UNL1       -0.3456
      4 O           0.5884   -0.9163   -4.2179 O.3     1  UNL1       -0.3094
      5 O           2.6770    0.4271    6.3513 O.3     1  UNL1       -0.3864
      6 O           1.2146    2.4980    7.4172 O.3     1  UNL1       -0.3847
      7 O          -2.9371   -1.3209   -3.6290 O.3     1  UNL1       -0.3862
      8 O          -2.1158   -0.7912   -6.1875 O.3     1  UNL1       -0.3803
      9 O          -0.0241   -1.1157    2.8716 O.3     1  UNL1       -0.2837
     10 O          -1.3682   -0.4321   -1.2338 O.3     1  UNL1       -0.2837
     11 O          -0.9787   -1.6607    0.7527 O.3     1  UNL1       -0.1861
     12 O          -2.1173   -2.2972    2.7468 O.3     1  UNL1       -0.3022
     13 O          -2.9663   -0.3653    0.4506 O.3     1  UNL1       -0.3022
     14 O          -0.1396   -3.3498    2.1089 O.2     1  UNL1       -0.2269
     15 O          -0.9349    0.7572    0.7448 O.2     1  UNL1       -0.2269
     16 O           5.3476   -1.0866   -5.9779 O.2     1  UNL1       -0.2702
     17 N          -0.2166    3.6102    4.9141 N.ar    1  UNL1       -0.2855
     18 N           1.2646   -2.1612   -6.0978 N.ar    1  UNL1       -0.1731
     19 N          -0.9584    5.7246    4.8801 N.ar    1  UNL1       -0.2306
     20 N          -2.4364    2.5466    4.8513 N.ar    1  UNL1       -0.2159
     21 N          -4.2382    4.0607    4.8485 N.ar    1  UNL1       -0.2188
     22 N          -3.9217    6.3386    4.9395 N.pl3   1  UNL1       -0.3413
     23 N           5.8129   -2.3682   -7.5948 N.am    1  UNL1       -0.3252
     24 C           1.2826    0.4158    6.0481 C.3     1  UNL1        0.1135
     25 C           0.6091    1.7641    6.3565 C.3     1  UNL1        0.1285
     26 C           1.0306    0.2391    4.5260 C.3     1  UNL1        0.1134
     27 C           0.6787    2.4898    4.9990 C.3     1  UNL1        0.1667
     28 C          -1.5821   -1.6339   -3.9456 C.3     1  UNL1        0.1184
     29 C          -1.2797   -1.6872   -5.4534 C.3     1  UNL1        0.1727
     30 C          -0.5784   -0.5722   -3.4648 C.3     1  UNL1        0.1177
     31 C           0.2283   -1.2875   -5.5596 C.3     1  UNL1        0.2949
     32 C           0.1976   -1.0200    4.1855 C.3     1  UNL1        0.0879
     33 C          -0.2509   -0.5891   -1.9547 C.3     1  UNL1        0.0880
     34 C          -1.5609    3.5855    4.8800 C.ar    1  UNL1        0.1674
     35 C           0.1195    4.9189    4.8852 C.ar    1  UNL1        0.1004
     36 C           2.5617   -1.6972   -6.1475 C.ar    1  UNL1        0.1859
     37 C           1.0159   -3.4216   -6.5738 C.ar    1  UNL1        0.1738
     38 C          -2.0185    4.9041    4.8846 C.ar    1  UNL1        0.1473
     39 C           3.6455   -2.4505   -6.6723 C.ar    1  UNL1        0.1000
     40 C           2.0247   -4.2420   -7.0964 C.ar    1  UNL1        0.0029
     41 C           3.3328   -3.7479   -7.1387 C.ar    1  UNL1       -0.0383
     42 C          -3.4057    5.1381    4.8886 C.ar    1  UNL1        0.1472
     43 C          -3.7736    2.7818    4.8275 C.ar    1  UNL1        0.1205
     44 C           4.9470   -1.9580   -6.7366 C.2     1  UNL1        0.2472
     45 H           0.8330   -0.3699    6.6627 H       1  UNL1        0.0647
     46 H          -0.4340    1.5849    6.6365 H       1  UNL1        0.0665
     47 H           1.9825    0.1751    3.9872 H       1  UNL1        0.0647
     48 H           1.7084    2.8251    4.8172 H       1  UNL1        0.0866
     49 H          -1.3484   -2.6018   -3.4890 H       1  UNL1        0.0649
     50 H          -1.5505   -2.6766   -5.8132 H       1  UNL1        0.0716
     51 H          -0.9214    0.4327   -3.7403 H       1  UNL1        0.0648
     52 H           0.2720   -0.3649   -6.1507 H       1  UNL1        0.1444
     53 H           0.7409   -1.9034    4.5365 H       1  UNL1        0.0592
     54 H          -0.7510   -0.9582    4.7288 H       1  UNL1        0.0592
     55 H           0.4572    0.2194   -1.7478 H       1  UNL1        0.0592
     56 H           0.2411   -1.5372   -1.7131 H       1  UNL1        0.0592
     57 H           2.9926   -0.4723    6.1208 H       1  UNL1        0.2100
     58 H           1.1159    1.9248    8.2068 H       1  UNL1        0.2101
     59 H          -3.4642   -2.0565   -4.0073 H       1  UNL1        0.2100
     60 H          -1.8719   -0.9317   -7.1269 H       1  UNL1        0.2103
     61 H           1.0766    5.2786    4.8810 H       1  UNL1        0.1030
     62 H           2.7650   -0.7538   -5.8008 H       1  UNL1        0.1385
     63 H           0.0884   -3.8403   -6.5809 H       1  UNL1        0.1377
     64 H           1.8120   -5.1825   -7.4412 H       1  UNL1        0.0677
     65 H           4.0557   -4.3673   -7.5152 H       1  UNL1        0.0629
     66 H          -4.4292    2.0007    4.7985 H       1  UNL1        0.1048
     67 H          -2.6857   -2.8711    2.3979 H       1  UNL1        0.2220
     68 H          -3.4964   -1.0051    0.1602 H       1  UNL1        0.2220
     69 H          -4.8406    6.4589    4.8098 H       1  UNL1        0.1438
     70 H          -3.3790    7.0806    5.1157 H       1  UNL1        0.1438
     71 H           5.5682   -2.9938   -8.2461 H       1  UNL1        0.1453
     72 H           6.6888   -2.0407   -7.5838 H       1  UNL1        0.1453
@<TRIPOS>BOND
     1     1     9    1
     2     1    11    1
     3     1    12    1
     4     1    14    2
     5     2    10    1
     6     2    11    1
     7     2    13    1
     8     2    15    2
     9     3    26    1
    10     3    27    1
    11     4    30    1
    12     4    31    1
    13    24     5    1
    14     5    57    1
    15    25     6    1
    16     6    58    1
    17    28     7    1
    18     7    59    1
    19    29     8    1
    20     8    60    1
    21     9    32    1
    22    10    33    1
    23    12    67    1
    24    13    68    1
    25    16    44    2
    26    27    17    1
    27    17    34   ar
    28    17    35   ar
    29    31    18    1
    30    18    36   ar
    31    18    37   ar
    32    19    35   ar
    33    19    38   ar
    34    20    34   ar
    35    20    43   ar
    36    21    42   ar
    37    21    43   ar
    38    22    42    1
    39    22    69    1
    40    22    70    1
    41    23    44   am
    42    23    71    1
    43    23    72    1
    44    24    25    1
    45    24    26    1
    46    24    45    1
    47    25    27    1
    48    25    46    1
    49    26    32    1
    50    26    47    1
    51    27    48    1
    52    28    29    1
    53    28    30    1
    54    28    49    1
    55    29    31    1
    56    29    50    1
    57    30    33    1
    58    30    51    1
    59    31    52    1
    60    32    53    1
    61    32    54    1
    62    33    55    1
    63    33    56    1
    64    34    38   ar
    65    35    61    1
    66    36    39   ar
    67    36    62    1
    68    37    40   ar
    69    37    63    1
    70    38    42   ar
    71    39    41   ar
    72    39    44    1
    73    40    41   ar
    74    40    64    1
    75    41    65    1
    76    43    66    1
