@<TRIPOS>MOLECULE
9833444
 140 143 0 0 0
SMALL
GASTEIGER

@<TRIPOS>ATOM
      1 S          -8.1445   -2.3587   -0.0366 S.3     1  UNL1       -0.1641
      2 S           4.1958    0.7752   -5.7635 S.3     1  UNL1       -0.1641
      3 S          12.4978   -6.7626   -1.7237 S.O2    1  UNL1        0.2513
      4 O          -5.2014    1.6900   -1.2799 O.2     1  UNL1       -0.2738
      5 O          -5.3126   -0.8723    3.0126 O.2     1  UNL1       -0.2738
      6 O          -0.1676    2.0784   -1.5299 O.2     1  UNL1       -0.2741
      7 O           6.4339   -0.0496   -0.5766 O.2     1  UNL1       -0.2738
      8 O           2.2684   -1.9884   -1.5840 O.2     1  UNL1       -0.2738
      9 O          -1.7557    1.9874    5.0668 O.2     1  UNL1       -0.2737
     10 O           6.4358   -3.8082   -4.0804 O.2     1  UNL1       -0.2741
     11 O          -1.8811   -2.0621    6.2208 O.3     1  UNL1       -0.4806
     12 O          -2.9902   -0.5089    7.0572 O.2     1  UNL1       -0.2509
     13 O          -1.9188    3.9669    7.8978 O.2     1  UNL1       -0.2740
     14 O          11.6360   -6.6302   -0.3782 O.3     1  UNL1       -0.3250
     15 O           2.4957   -5.5973    0.0668 O.3     1  UNL1       -0.4806
     16 O           2.5550   -6.0766   -1.9407 O.2     1  UNL1       -0.2509
     17 O          14.0465   -6.7448   -1.3690 O.3     1  UNL1       -0.2222
     18 O          12.1450   -8.1291   -2.4543 O.2     1  UNL1       -0.1077
     19 O          12.2264   -5.5737   -2.7465 O.2     1  UNL1       -0.1077
     20 N          -4.0685    0.8664    0.3504 N.am    1  UNL1       -0.3024
     21 N          -1.9796    0.8410   -1.5909 N.am    1  UNL1       -0.3024
     22 N          -4.7150    5.5898   -3.1115 N.ar    1  UNL1       -0.3604
     23 N          -4.0998    0.9287    3.2083 N.am    1  UNL1       -0.3019
     24 N           4.7842   -1.1569   -1.5084 N.am    1  UNL1       -0.3024
     25 N           1.4731    0.0354   -1.5295 N.am    1  UNL1       -0.3052
     26 N           6.7776   -2.8514   -2.2735 N.am    1  UNL1       -0.3024
     27 N          -3.6637    3.0334    5.2755 N.am    1  UNL1       -0.3022
     28 N           5.3490   -6.0243   -2.8447 N.3     1  UNL1       -0.3195
     29 N          -3.9631    3.4103    8.1275 N.am    1  UNL1       -0.3278
     30 C          -2.9329    1.8642   -1.6047 C.3     1  UNL1        0.1034
     31 C          -3.1299    2.2951   -3.1046 C.3     1  UNL1        0.0013
     32 C          -5.1884    0.4354    1.1010 C.3     1  UNL1        0.1002
     33 C          -4.0100    3.4740   -3.2708 C.ar    1  UNL1       -0.0201
     34 C          -4.0966    1.4465   -0.8257 C.2     1  UNL1        0.2343
     35 C          -5.3958    3.4982   -3.4446 C.ar    1  UNL1        0.0029
     36 C          -5.9535   -0.7132    0.3480 C.3     1  UNL1       -0.0169
     37 C          -5.8048    4.8186   -3.2388 C.ar    1  UNL1        0.0467
     38 C          -4.8496    0.1356    2.4908 C.2     1  UNL1        0.2340
     39 C          -3.6243    4.8081   -3.1291 C.ar    1  UNL1        0.0060
     40 C          -3.6510    0.7436    4.5298 C.3     1  UNL1        0.1094
     41 C           3.8004   -0.1849   -1.6655 C.3     1  UNL1        0.1001
     42 C           6.7303   -2.3532   -0.9624 C.3     1  UNL1        0.1033
     43 C          -7.4291   -0.9064    0.7702 C.3     1  UNL1       -0.0044
     44 C          -0.6893    0.9672   -1.5464 C.2     1  UNL1        0.2308
     45 C           4.0319    0.5955   -2.9954 C.3     1  UNL1       -0.0169
     46 C          -6.3467    2.4807   -3.6730 C.ar    1  UNL1       -0.0523
     47 C           8.1640   -2.2684   -0.3521 C.3     1  UNL1       -0.0007
     48 C           0.1093   -0.2389   -1.5370 C.3     1  UNL1        0.0882
     49 C           5.9757   -1.1050   -0.9976 C.2     1  UNL1        0.2343
     50 C          -2.8057   -0.5687    4.7087 C.3     1  UNL1        0.0716
     51 C          -7.1691    5.1455   -3.1504 C.ar    1  UNL1       -0.0378
     52 C           2.4697   -0.7792   -1.5809 C.2     1  UNL1        0.2338
     53 C          -2.9778    1.9645    4.9701 C.2     1  UNL1        0.2345
     54 C          -3.2279    4.1768    5.9689 C.3     1  UNL1        0.1031
     55 C          -7.7154    2.7917   -3.5549 C.ar    1  UNL1       -0.0611
     56 C           3.9459   -0.2471   -4.2926 C.3     1  UNL1       -0.0044
     57 C          -8.1230    4.1137   -3.2781 C.ar    1  UNL1       -0.0598
     58 C           9.0030   -3.4962   -0.2383 C.ar    1  UNL1       -0.0449
     59 C          -4.1984    5.3836    5.7836 C.3     1  UNL1       -0.0007
     60 C           6.0712   -3.7452   -2.9126 C.2     1  UNL1        0.2310
     61 C           4.9562   -4.6331   -2.5508 C.3     1  UNL1        0.0924
     62 C          -2.5504   -1.0487    6.0532 C.2     1  UNL1        0.3070
     63 C          -4.5008    5.7652    4.3742 C.ar    1  UNL1       -0.0451
     64 C          -3.0187    3.8511    7.3769 C.2     1  UNL1        0.2311
     65 C          10.3048   -3.3749    0.3060 C.ar    1  UNL1       -0.0550
     66 C           8.5944   -4.7825   -0.6662 C.ar    1  UNL1       -0.0550
     67 C           4.2887   -4.6872   -1.1405 C.3     1  UNL1        0.0684
     68 C          -9.6513   -2.4568    0.9478 C.3     1  UNL1       -0.0181
     69 C          11.1948   -4.4636    0.3237 C.ar    1  UNL1       -0.0167
     70 C           9.4804   -5.8708   -0.6797 C.ar    1  UNL1       -0.0167
     71 C          10.8024   -5.6987   -0.2290 C.ar    1  UNL1        0.1588
     72 C          -5.8282    5.7369    3.8814 C.ar    1  UNL1       -0.0585
     73 C          -3.4745    6.1729    3.4877 C.ar    1  UNL1       -0.0585
     74 C           3.8760   -0.4920   -7.0070 C.3     1  UNL1       -0.0181
     75 C           3.0752   -5.4819   -1.0070 C.2     1  UNL1        0.3067
     76 C          -6.1194    6.0810    2.5489 C.ar    1  UNL1       -0.0615
     77 C          -3.7576    6.5098    2.1506 C.ar    1  UNL1       -0.0615
     78 C          -5.0816    6.4604    1.6796 C.ar    1  UNL1       -0.0617
     79 H          -2.5587    2.7333   -1.0515 H       1  UNL1        0.0598
     80 H          -3.5158    1.4549   -3.6875 H       1  UNL1        0.0337
     81 H          -2.1639    2.5453   -3.5548 H       1  UNL1        0.0337
     82 H          -5.8616    1.2974    1.1795 H       1  UNL1        0.0595
     83 H          -5.3958   -1.6451    0.4774 H       1  UNL1        0.0296
     84 H          -5.9847   -0.5549   -0.7318 H       1  UNL1        0.0296
     85 H          -3.2241    0.7207    0.7270 H       1  UNL1        0.1495
     86 H          -2.3081   -0.0344   -1.6436 H       1  UNL1        0.1495
     87 H          -2.6654    5.1428   -3.0159 H       1  UNL1        0.0810
     88 H          -4.5458    0.6297    5.1543 H       1  UNL1        0.0600
     89 H           3.8833    0.5259   -0.8345 H       1  UNL1        0.0595
     90 H          -4.7142    6.5523   -2.9945 H       1  UNL1        0.1653
     91 H           6.1954   -3.0134   -0.2828 H       1  UNL1        0.0598
     92 H          -3.8307    1.7195    2.7861 H       1  UNL1        0.1495
     93 H          -8.0156   -0.0252    0.4986 H       1  UNL1        0.0377
     94 H          -7.5028   -1.0348    1.8494 H       1  UNL1        0.0377
     95 H           5.0151    1.0730   -2.9550 H       1  UNL1        0.0296
     96 H           3.3036    1.4093   -3.0618 H       1  UNL1        0.0296
     97 H          -6.0546    1.5205   -3.8694 H       1  UNL1        0.0624
     98 H           8.7334   -1.5467   -0.9478 H       1  UNL1        0.0336
     99 H           8.0741   -1.8479    0.6545 H       1  UNL1        0.0336
    100 H          -0.1427   -0.8289   -0.6511 H       1  UNL1        0.0558
    101 H          -0.1301   -0.8289   -2.4277 H       1  UNL1        0.0558
    102 H           4.5515   -1.9892   -1.8615 H       1  UNL1        0.1495
    103 H          -1.8514   -0.4486    4.1894 H       1  UNL1        0.0401
    104 H          -3.2929   -1.4128    4.2209 H       1  UNL1        0.0401
    105 H          -7.4601    6.1074   -2.9686 H       1  UNL1        0.0638
    106 H          -2.2714    4.4969    5.5388 H       1  UNL1        0.0598
    107 H           1.7081    0.9391   -1.4896 H       1  UNL1        0.1492
    108 H           7.4386   -2.4370   -2.7939 H       1  UNL1        0.1495
    109 H          -8.4128    2.0501   -3.6531 H       1  UNL1        0.0618
    110 H          -4.5703    3.0190    5.0441 H       1  UNL1        0.1495
    111 H           4.7063   -1.0310   -4.2829 H       1  UNL1        0.0377
    112 H           2.9635   -0.7190   -4.3610 H       1  UNL1        0.0377
    113 H          -9.1168    4.3232   -3.1657 H       1  UNL1        0.0618
    114 H          -3.7731    6.2645    6.2745 H       1  UNL1        0.0336
    115 H          -5.1252    5.1672    6.3241 H       1  UNL1        0.0336
    116 H           4.1526   -4.3646   -3.2444 H       1  UNL1        0.0560
    117 H          10.6309   -2.4799    0.6810 H       1  UNL1        0.0621
    118 H           7.6508   -4.9641   -0.9994 H       1  UNL1        0.0621
    119 H           5.0114   -5.0660   -0.4131 H       1  UNL1        0.0398
    120 H           4.0131   -3.6838   -0.8250 H       1  UNL1        0.0398
    121 H         -10.2436   -3.3007    0.5977 H       1  UNL1        0.0340
    122 H         -10.2295   -1.5386    0.8411 H       1  UNL1        0.0340
    123 H          -9.3987   -2.6145    1.9973 H       1  UNL1        0.0340
    124 H          12.1349   -4.3453    0.7091 H       1  UNL1        0.0655
    125 H           9.1655   -6.7744   -1.0432 H       1  UNL1        0.0655
    126 H          -6.6052    5.4654    4.4888 H       1  UNL1        0.0620
    127 H          -2.5031    6.2292    3.8036 H       1  UNL1        0.0620
    128 H           5.6223   -6.0927   -3.8270 H       1  UNL1        0.1189
    129 H           6.1685   -6.2429   -2.2736 H       1  UNL1        0.1189
    130 H          -4.8272    3.3093    7.7837 H       1  UNL1        0.1450
    131 H          -3.7929    3.1848    9.0193 H       1  UNL1        0.1450
    132 H           3.9912   -0.0511   -7.9966 H       1  UNL1        0.0340
    133 H           4.5839   -1.3144   -6.8985 H       1  UNL1        0.0340
    134 H           2.8572   -0.8680   -6.9050 H       1  UNL1        0.0340
    135 H          -7.0845    6.0552    2.2122 H       1  UNL1        0.0618
    136 H          -3.0034    6.7915    1.5200 H       1  UNL1        0.0618
    137 H          -1.5560   -2.4993    5.5276 H       1  UNL1        0.2951
    138 H          -5.2904    6.7024    0.7087 H       1  UNL1        0.0618
    139 H           2.7960   -5.2030    0.7933 H       1  UNL1        0.2951
    140 H          14.6408   -6.7560   -2.0177 H       1  UNL1        0.2479
@<TRIPOS>BOND
     1     1    43    1
     2     1    68    1
     3     2    56    1
     4     2    74    1
     5     3    14    1
     6     3    17    1
     7     3    18    2
     8     3    19    2
     9     4    34    2
    10     5    38    2
    11     6    44    2
    12     7    49    2
    13     8    52    2
    14     9    53    2
    15    10    60    2
    16    11    62    1
    17    11   137    1
    18    12    62    2
    19    13    64    2
    20    14    71    1
    21    15    75    1
    22    15   139    1
    23    16    75    2
    24    17   140    1
    25    32    20    1
    26    20    34   am
    27    20    85    1
    28    30    21    1
    29    21    44   am
    30    21    86    1
    31    22    37   ar
    32    22    39   ar
    33    22    90    1
    34    23    38   am
    35    40    23    1
    36    23    92    1
    37    41    24    1
    38    24    49   am
    39    24   102    1
    40    25    48    1
    41    25    52   am
    42    25   107    1
    43    42    26    1
    44    26    60   am
    45    26   108    1
    46    27    53   am
    47    54    27    1
    48    27   110    1
    49    61    28    1
    50    28   128    1
    51    28   129    1
    52    29    64   am
    53    29   130    1
    54    29   131    1
    55    30    31    1
    56    30    34    1
    57    30    79    1
    58    31    33    1
    59    31    80    1
    60    31    81    1
    61    32    36    1
    62    32    38    1
    63    32    82    1
    64    33    35   ar
    65    33    39   ar
    66    35    37   ar
    67    35    46   ar
    68    36    43    1
    69    36    83    1
    70    36    84    1
    71    37    51   ar
    72    39    87    1
    73    40    50    1
    74    40    53    1
    75    40    88    1
    76    41    45    1
    77    41    52    1
    78    41    89    1
    79    42    47    1
    80    42    49    1
    81    42    91    1
    82    43    93    1
    83    43    94    1
    84    44    48    1
    85    45    56    1
    86    45    95    1
    87    45    96    1
    88    46    55   ar
    89    46    97    1
    90    47    58    1
    91    47    98    1
    92    47    99    1
    93    48   100    1
    94    48   101    1
    95    50    62    1
    96    50   103    1
    97    50   104    1
    98    51    57   ar
    99    51   105    1
   100    54    59    1
   101    54    64    1
   102    54   106    1
   103    55    57   ar
   104    55   109    1
   105    56   111    1
   106    56   112    1
   107    57   113    1
   108    58    65   ar
   109    58    66   ar
   110    59    63    1
   111    59   114    1
   112    59   115    1
   113    60    61    1
   114    61    67    1
   115    61   116    1
   116    63    72   ar
   117    63    73   ar
   118    65    69   ar
   119    65   117    1
   120    66    70   ar
   121    66   118    1
   122    67    75    1
   123    67   119    1
   124    67   120    1
   125    68   121    1
   126    68   122    1
   127    68   123    1
   128    69    71   ar
   129    69   124    1
   130    70    71   ar
   131    70   125    1
   132    72    76   ar
   133    72   126    1
   134    73    77   ar
   135    73   127    1
   136    74   132    1
   137    74   133    1
   138    74   134    1
   139    76    78   ar
   140    76   135    1
   141    77    78   ar
   142    77   136    1
   143    78   138    1
