@<TRIPOS>MOLECULE
439174
 30 30 0 0 0
SMALL
GASTEIGER

@<TRIPOS>ATOM
      1 O           0.2604   -1.8914    0.3996 O.3     1  UNL1       -0.3414
      2 O           0.4735    2.1481    0.1587 O.3     1  UNL1       -0.3871
      3 O           2.8326    0.4119   -0.8727 O.3     1  UNL1       -0.3865
      4 O          -2.0109   -1.9949    0.1155 O.3     1  UNL1       -0.3654
      5 O           2.3218   -1.8769    2.3010 O.3     1  UNL1       -0.3924
      6 O          -3.3529    1.9202   -1.9567 O.2     1  UNL1       -0.2761
      7 N          -1.9137    0.6720   -1.0308 N.am    1  UNL1       -0.3053
      8 C           0.4589    0.8635   -0.4671 C.3     1  UNL1        0.1065
      9 C          -0.9154    0.1822   -0.1760 C.3     1  UNL1        0.1021
     10 C           1.7328    0.0809   -0.0201 C.3     1  UNL1        0.1112
     11 C           1.5757   -1.4715   -0.0087 C.3     1  UNL1        0.1129
     12 C          -0.8307   -1.3563   -0.3638 C.3     1  UNL1        0.1776
     13 C           2.5757   -2.1887    0.9330 C.3     1  UNL1        0.0730
     14 C          -2.6741    1.7211   -0.9581 C.2     1  UNL1        0.2104
     15 C          -2.8162    2.6700    0.1246 C.3     1  UNL1        0.0122
     16 H           0.5309    1.0455   -1.5437 H       1  UNL1        0.0640
     17 H          -1.1799    0.3319    0.8761 H       1  UNL1        0.0575
     18 H           2.0097    0.4122    0.9840 H       1  UNL1        0.0646
     19 H           1.7499   -1.8598   -1.0192 H       1  UNL1        0.0647
     20 H          -0.7222   -1.6285   -1.4192 H       1  UNL1        0.0928
     21 H           2.4914   -3.2713    0.8159 H       1  UNL1        0.0584
     22 H           3.6025   -1.9038    0.6946 H       1  UNL1        0.0584
     23 H          -2.0214    0.1729   -1.8157 H       1  UNL1        0.1492
     24 H           0.4234    1.9653    1.1228 H       1  UNL1        0.2100
     25 H           2.8642    1.3904   -0.9140 H       1  UNL1        0.2100
     26 H          -1.8501   -2.9543   -0.0053 H       1  UNL1        0.2125
     27 H           2.9787   -2.3909    2.8151 H       1  UNL1        0.2095
     28 H          -2.5166    3.6637   -0.2139 H       1  UNL1        0.0322
     29 H          -3.8598    2.7115    0.4430 H       1  UNL1        0.0322
     30 H          -2.2181    2.4248    1.0011 H       1  UNL1        0.0322
@<TRIPOS>BOND
     1     1    11    1
     2     1    12    1
     3     8     2    1
     4     2    24    1
     5    10     3    1
     6     3    25    1
     7     4    12    1
     8     4    26    1
     9     5    13    1
    10     5    27    1
    11     6    14    2
    12     9     7    1
    13     7    14   am
    14     7    23    1
    15     8     9    1
    16     8    10    1
    17     8    16    1
    18     9    12    1
    19     9    17    1
    20    10    11    1
    21    10    18    1
    22    11    13    1
    23    11    19    1
    24    12    20    1
    25    13    21    1
    26    13    22    1
    27    14    15    1
    28    15    28    1
    29    15    29    1
    30    15    30    1
