@<TRIPOS>MOLECULE
681
 22 22 0 0 0
SMALL
GASTEIGER

@<TRIPOS>ATOM
      1 O           3.1666    1.1516   -0.4169 O.3     1  UNL1       -0.5033
      2 O           1.8181    3.4899   -0.4138 O.3     1  UNL1       -0.5033
      3 N          -1.9699   -3.0815    1.0527 N.3     1  UNL1       -0.3297
      4 C          -0.9603   -1.3516   -0.4175 C.3     1  UNL1       -0.0152
      5 C          -0.2174   -0.0660   -0.4428 C.ar    1  UNL1       -0.0425
      6 C          -1.2280   -1.8188    1.0314 C.3     1  UNL1       -0.0029
      7 C           1.1964   -0.0465   -0.4371 C.ar    1  UNL1       -0.0133
      8 C          -0.9073    1.1679   -0.4372 C.ar    1  UNL1       -0.0549
      9 C           1.9086    1.1700   -0.4269 C.ar    1  UNL1        0.1585
     10 C          -0.2054    2.3865   -0.4272 C.ar    1  UNL1       -0.0163
     11 C           1.2036    2.3926   -0.4232 C.ar    1  UNL1        0.1582
     12 H          -0.4014   -2.1270   -0.9497 H       1  UNL1        0.0325
     13 H          -1.9107   -1.2568   -0.9506 H       1  UNL1        0.0325
     14 H          -0.2871   -1.9718    1.5652 H       1  UNL1        0.0425
     15 H          -1.8154   -1.0742    1.5738 H       1  UNL1        0.0425
     16 H           1.7175   -0.9280   -0.4338 H       1  UNL1        0.0658
     17 H          -1.9302    1.1921   -0.4339 H       1  UNL1        0.0621
     18 H          -0.7290    3.2654   -0.4197 H       1  UNL1        0.0655
     19 H          -2.0594   -3.3566    2.0330 H       1  UNL1        0.1182
     20 H          -1.3767   -3.7802    0.6004 H       1  UNL1        0.1182
     21 H           3.6075    0.3890   -0.4148 H       1  UNL1        0.2923
     22 H           1.3800    4.2540   -0.4115 H       1  UNL1        0.2923
@<TRIPOS>BOND
     1     1     9    1
     2     1    21    1
     3     2    11    1
     4     2    22    1
     5     3     6    1
     6     3    19    1
     7     3    20    1
     8     4     5    1
     9     4     6    1
    10     4    12    1
    11     4    13    1
    12     5     7   ar
    13     5     8   ar
    14     6    14    1
    15     6    15    1
    16     7     9   ar
    17     7    16    1
    18     8    10   ar
    19     8    17    1
    20     9    11   ar
    21    10    11   ar
    22    10    18    1
