@<TRIPOS>MOLECULE
5816
 26 26 0 0 0
SMALL
GASTEIGER

@<TRIPOS>ATOM
      1 O           0.3555   -1.9447    1.1001 O.3     1  UNL1       -0.3859
      2 O           4.1796    1.2235   -0.0641 O.3     1  UNL1       -0.5033
      3 O           2.9293    3.6098   -0.0603 O.3     1  UNL1       -0.5033
      4 N          -2.3366   -2.3240   -0.0510 N.3     1  UNL1       -0.3162
      5 C          -0.0327   -1.1620   -0.0296 C.3     1  UNL1        0.0927
      6 C           0.7364    0.1250   -0.0393 C.ar    1  UNL1       -0.0143
      7 C          -1.5818   -1.0533   -0.0446 C.3     1  UNL1        0.0258
      8 C           2.1547    0.0972   -0.0540 C.ar    1  UNL1       -0.0109
      9 C           0.1233    1.4036   -0.0391 C.ar    1  UNL1       -0.0524
     10 C           2.9224    1.2817   -0.0588 C.ar    1  UNL1        0.1586
     11 C           0.8714    2.5913   -0.0492 C.ar    1  UNL1       -0.0162
     12 C           2.2765    2.5349   -0.0565 C.ar    1  UNL1        0.1582
     13 C          -3.8050   -2.1440   -0.0629 C.3     1  UNL1       -0.0157
     14 H           0.2591   -1.7327   -0.9159 H       1  UNL1        0.0656
     15 H          -1.8682   -0.4924   -0.9389 H       1  UNL1        0.0453
     16 H          -1.8857   -0.4914    0.8432 H       1  UNL1        0.0453
     17 H           2.6441   -0.8022   -0.0596 H       1  UNL1        0.0659
     18 H          -0.8913    1.5153   -0.0327 H       1  UNL1        0.0622
     19 H          -2.0913   -2.8231   -0.9090 H       1  UNL1        0.1217
     20 H           0.3844    3.4914   -0.0507 H       1  UNL1        0.0655
     21 H           0.0993   -1.4221    1.8888 H       1  UNL1        0.2103
     22 H          -4.2894   -3.1195   -0.0714 H       1  UNL1        0.0388
     23 H          -4.1411   -1.6053    0.8259 H       1  UNL1        0.0388
     24 H          -4.1282   -1.5952   -0.9506 H       1  UNL1        0.0388
     25 H           4.6000    0.4506   -0.0626 H       1  UNL1        0.2923
     26 H           2.5153    4.3876   -0.0571 H       1  UNL1        0.2923
@<TRIPOS>BOND
     1     5     1    1
     2     1    21    1
     3     2    10    1
     4     2    25    1
     5     3    12    1
     6     3    26    1
     7     4     7    1
     8     4    13    1
     9     4    19    1
    10     5     6    1
    11     5     7    1
    12     5    14    1
    13     6     8   ar
    14     6     9   ar
    15     7    15    1
    16     7    16    1
    17     8    10   ar
    18     8    17    1
    19     9    11   ar
    20     9    18    1
    21    10    12   ar
    22    11    12   ar
    23    11    20    1
    24    13    22    1
    25    13    23    1
    26    13    24    1
