@<TRIPOS>MOLECULE
119
 16 15 0 0 0
SMALL
GASTEIGER

@<TRIPOS>ATOM
      1 O          -2.8194    1.8431    0.0519 O.3     1  UNL1       -0.4806
      2 O          -0.9176    2.6725    0.0520 O.2     1  UNL1       -0.2510
      3 N           2.4862   -1.2242    0.0746 N.3     1  UNL1       -0.3300
      4 C           0.4839    0.2182    0.0545 C.3     1  UNL1       -0.0306
      5 C          -1.0631    0.3199    0.0525 C.3     1  UNL1        0.0459
      6 C           1.0205   -1.2295    0.0571 C.3     1  UNL1       -0.0064
      7 C          -1.6087    1.6642    0.0521 C.2     1  UNL1        0.3047
      8 H           0.8727    0.7331    0.9382 H       1  UNL1        0.0283
      9 H           0.8743    0.7307   -0.8298 H       1  UNL1        0.0283
     10 H          -1.4460   -0.2014   -0.8296 H       1  UNL1        0.0378
     11 H          -1.4477   -0.2010    0.9340 H       1  UNL1        0.0378
     12 H           0.6836   -1.7635   -0.8341 H       1  UNL1        0.0422
     13 H           0.6673   -1.7668    0.9400 H       1  UNL1        0.0422
     14 H           2.7954   -2.1962    0.0168 H       1  UNL1        0.1182
     15 H           2.7922   -0.7585   -0.7822 H       1  UNL1        0.1182
     16 H          -3.3735    1.1595    0.0521 H       1  UNL1        0.2951
@<TRIPOS>BOND
     1     1     7    1
     2     1    16    1
     3     2     7    2
     4     3     6    1
     5     3    14    1
     6     3    15    1
     7     4     5    1
     8     4     6    1
     9     4     8    1
    10     4     9    1
    11     5     7    1
    12     5    10    1
    13     5    11    1
    14     6    12    1
    15     6    13    1
