119
  Marvin  12300703363D          

 16 15  0  0  0  0            999 V2000
   -2.8194    1.8431    0.0519 O   0  0  0  0  0  0  0  0  0  0  0  0
   -0.9176    2.6725    0.0520 O   0  0  0  0  0  0  0  0  0  0  0  0
    2.4862   -1.2242    0.0746 N   0  0  0  0  0  0  0  0  0  0  0  0
    0.4839    0.2182    0.0545 C   0  0  0  0  0  0  0  0  0  0  0  0
   -1.0631    0.3199    0.0525 C   0  0  0  0  0  0  0  0  0  0  0  0
    1.0205   -1.2295    0.0571 C   0  0  0  0  0  0  0  0  0  0  0  0
   -1.6087    1.6642    0.0521 C   0  0  0  0  0  0  0  0  0  0  0  0
    0.8727    0.7331    0.9382 H   0  0  0  0  0  0  0  0  0  0  0  0
    0.8743    0.7307   -0.8298 H   0  0  0  0  0  0  0  0  0  0  0  0
   -1.4460   -0.2014   -0.8296 H   0  0  0  0  0  0  0  0  0  0  0  0
   -1.4477   -0.2010    0.9340 H   0  0  0  0  0  0  0  0  0  0  0  0
    0.6836   -1.7635   -0.8341 H   0  0  0  0  0  0  0  0  0  0  0  0
    0.6673   -1.7668    0.9400 H   0  0  0  0  0  0  0  0  0  0  0  0
    2.7954   -2.1962    0.0168 H   0  0  0  0  0  0  0  0  0  0  0  0
    2.7922   -0.7585   -0.7822 H   0  0  0  0  0  0  0  0  0  0  0  0
   -3.3735    1.1595    0.0521 H   0  0  0  0  0  0  0  0  0  0  0  0
  1  7  1  0  0  0  0
  1 16  1  0  0  0  0
  2  7  2  0  0  0  0
  3  6  1  0  0  0  0
  3 14  1  0  0  0  0
  3 15  1  0  0  0  0
  4  5  1  0  0  0  0
  4  6  1  0  0  0  0
  4  8  1  0  0  0  0
  4  9  1  0  0  0  0
  5  7  1  0  0  0  0
  5 10  1  0  0  0  0
  5 11  1  0  0  0  0
  6 12  1  0  0  0  0
  6 13  1  0  0  0  0
M  END

> <StdInChI>
InChI=1S/C4H9NO2/c5-3-1-2-4(6)7/h1-3,5H2,(H,6,7)

> <StdInChIKey>
BTCSSZJGUNDROE-UHFFFAOYSA-N

> <AuxInfo>
1/1/N:4,5,6,7,3,1,2/E:(6,7)/rA:16nOONCCCCHHHHHHHHH/rB:;;;s4;s3s4;s1d2s5;s4;s4;s5;s5;s6;s6;s3;s3;s1;/rC:-2.8194,1.8431,.0519;-.9176,2.6725,.052;2.4862,-1.2242,.0746;.4839,.2182,.0545;-1.0631,.3199,.0525;1.0205,-1.2295,.0571;-1.6087,1.6642,.0521;.8727,.7331,.9382;.8743,.7307,-.8298;-1.446,-.2014,-.8296;-1.4477,-.201,.934;.6836,-1.7635,-.8341;.6673,-1.7668,.94;2.7954,-2.1962,.0168;2.7922,-.7585,-.7822;-3.3735,1.1595,.0521;

> <Formula>
C4 H9 N O2

> <Mw>
103.1198

> <SMILES>
O([H])C(C([H])([H])C([H])([H])C([H])([H])N([H])[H])=O

> <CSID>
116

$$$$
