@<TRIPOS>MOLECULE
192764
 94 97 0 0 0
SMALL
GASTEIGER

@<TRIPOS>ATOM
      1 S          -4.5999   -3.8820   -1.1741 S.3     1  UNL1       -0.1641
      2 O          -1.5307    0.3744   -2.1456 O.2     1  UNL1       -0.2737
      3 O          -1.7107   -2.4986    1.9091 O.2     1  UNL1       -0.2738
      4 O           1.7438    0.3715    4.1207 O.2     1  UNL1       -0.2737
      5 O           3.7444   -1.5498   -2.6049 O.3     1  UNL1       -0.4456
      6 O           3.4955    0.5852   -2.6320 O.2     1  UNL1       -0.2265
      7 O           1.7406   -3.6091    5.1302 O.3     1  UNL1       -0.4806
      8 O           1.6389    2.2965    6.8462 O.2     1  UNL1       -0.2740
      9 O           0.5581   -2.1202    5.9800 O.2     1  UNL1       -0.2509
     10 N          -0.4595   -0.7264   -0.6770 N.am    1  UNL1       -0.3024
     11 N          -0.5890   -0.6424    2.1762 N.am    1  UNL1       -0.3019
     12 N           1.7200   -0.7197   -2.5983 N.am    1  UNL1       -0.2695
     13 N          -1.1497    3.9242   -4.1731 N.ar    1  UNL1       -0.3604
     14 N          -0.1558    1.4380    4.2481 N.am    1  UNL1       -0.3022
     15 N          -0.4088    1.7760    7.1176 N.am    1  UNL1       -0.3278
     16 C           0.7166    0.2671   -2.6420 C.3     1  UNL1        0.1065
     17 C          -1.6136   -1.1243    0.0493 C.3     1  UNL1        0.1002
     18 C           0.4447    0.6279   -4.1513 C.3     1  UNL1        0.0014
     19 C          -0.4407    1.8071   -4.3321 C.ar    1  UNL1       -0.0201
     20 C          -2.4137   -2.2181   -0.7453 C.3     1  UNL1       -0.0169
     21 C          -0.4451   -0.0707   -1.8105 C.2     1  UNL1        0.2344
     22 C          -1.8324    1.8282   -4.4704 C.ar    1  UNL1        0.0029
     23 C          -0.1335   -0.8526    3.4888 C.3     1  UNL1        0.1094
     24 C          -1.2893   -1.4529    1.4301 C.2     1  UNL1        0.2340
     25 C          -2.2398    3.1518   -4.2772 C.ar    1  UNL1        0.0467
     26 C          -0.0587    3.1429   -4.2026 C.ar    1  UNL1        0.0060
     27 C          -3.8549   -2.5121   -0.2558 C.3     1  UNL1       -0.0044
     28 C           0.7399   -2.1515    3.6324 C.3     1  UNL1        0.0716
     29 C           0.2878    2.5698    4.9562 C.3     1  UNL1        0.1031
     30 C           0.5272    0.3617    3.9628 C.2     1  UNL1        0.2345
     31 C          -2.7870    0.8007   -4.6263 C.ar    1  UNL1       -0.0523
     32 C          -0.6689    3.7896    4.7902 C.3     1  UNL1       -0.0007
     33 C          -3.6026    3.4804   -4.1624 C.ar    1  UNL1       -0.0378
     34 C          -4.1531    1.1131   -4.4732 C.ar    1  UNL1       -0.0611
     35 C          -4.5569    2.4439   -4.2320 C.ar    1  UNL1       -0.0598
     36 C           3.0111   -0.5422   -2.6069 C.2     1  UNL1        0.4012
     37 C          -0.9726    4.1651    3.3798 C.ar    1  UNL1       -0.0451
     38 C           0.5224    2.2186    6.3537 C.2     1  UNL1        0.2311
     39 C           1.0220   -2.6300    4.9711 C.2     1  UNL1        0.3070
     40 C          -2.2978    4.1376    2.8821 C.ar    1  UNL1       -0.0585
     41 C           0.0607    4.5564    2.4939 C.ar    1  UNL1       -0.0585
     42 C          -6.0373   -4.1657   -0.1202 C.3     1  UNL1       -0.0181
     43 C           5.0878   -1.6508   -2.6189 C.3     1  UNL1        0.1191
     44 C          -2.5797    4.4693    1.5437 C.ar    1  UNL1       -0.0615
     45 C          -0.2129    4.8780    1.1515 C.ar    1  UNL1       -0.0615
     46 C          -1.5350    4.8329    0.6759 C.ar    1  UNL1       -0.0617
     47 C           5.6687   -3.0166   -2.6218 C.ar    1  UNL1       -0.0103
     48 C           7.0793   -3.1471   -2.6243 C.ar    1  UNL1       -0.0554
     49 C           4.8904   -4.1986   -2.6231 C.ar    1  UNL1       -0.0554
     50 C           7.6954   -4.4117   -2.6265 C.ar    1  UNL1       -0.0614
     51 C           5.5020   -5.4675   -2.6257 C.ar    1  UNL1       -0.0614
     52 C           6.9046   -5.5737   -2.6270 C.ar    1  UNL1       -0.0617
     53 H           1.0908    1.1762   -2.1580 H       1  UNL1        0.0599
     54 H          -2.2720   -0.2527    0.1483 H       1  UNL1        0.0595
     55 H           1.3841    0.8470   -4.6678 H       1  UNL1        0.0337
     56 H           0.0219   -0.2397   -4.6636 H       1  UNL1        0.0337
     57 H          -1.8254   -3.1400   -0.7378 H       1  UNL1        0.0296
     58 H          -2.5149   -1.9368   -1.7962 H       1  UNL1        0.0296
     59 H           0.3730   -0.9509   -0.3130 H       1  UNL1        0.1495
     60 H          -1.0266   -0.9950    4.1096 H       1  UNL1        0.0600
     61 H          -0.3730    0.1817    1.7869 H       1  UNL1        0.1495
     62 H           0.9004    3.4807   -4.0971 H       1  UNL1        0.0810
     63 H           1.4263   -1.6085   -2.5933 H       1  UNL1        0.1528
     64 H          -4.4803   -1.6244   -0.3721 H       1  UNL1        0.0377
     65 H          -3.8592   -2.7832    0.7983 H       1  UNL1        0.0377
     66 H          -1.1492    4.8873   -4.0555 H       1  UNL1        0.1653
     67 H           1.6811   -2.0011    3.0966 H       1  UNL1        0.0401
     68 H           0.2702   -3.0053    3.1457 H       1  UNL1        0.0401
     69 H           1.2412    2.8865    4.5171 H       1  UNL1        0.0598
     70 H          -2.4997   -0.1664   -4.7911 H       1  UNL1        0.0624
     71 H          -1.0543    1.4417    3.9852 H       1  UNL1        0.1495
     72 H          -0.2219    4.6638    5.2738 H       1  UNL1        0.0336
     73 H          -1.5926    3.5890    5.3415 H       1  UNL1        0.0336
     74 H          -3.8912    4.4463   -3.9989 H       1  UNL1        0.0638
     75 H          -4.8512    0.3678   -4.5179 H       1  UNL1        0.0618
     76 H          -5.5477    2.6556   -4.0990 H       1  UNL1        0.0618
     77 H          -3.0783    3.8737    3.4884 H       1  UNL1        0.0620
     78 H           1.0309    4.6091    2.8129 H       1  UNL1        0.0620
     79 H          -5.7191   -4.4412    0.8863 H       1  UNL1        0.0340
     80 H          -6.6213   -4.9854   -0.5369 H       1  UNL1        0.0340
     81 H          -6.6570   -3.2697   -0.0764 H       1  UNL1        0.0340
     82 H          -1.2847    1.7037    6.7977 H       1  UNL1        0.1450
     83 H          -0.2153    1.5170    7.9954 H       1  UNL1        0.1450
     84 H           5.4779   -1.1326   -1.7368 H       1  UNL1        0.0749
     85 H           5.4638   -1.1380   -3.5105 H       1  UNL1        0.0749
     86 H          -3.5427    4.4451    1.2014 H       1  UNL1        0.0618
     87 H           0.5479    5.1443    0.5225 H       1  UNL1        0.0618
     88 H          -1.7364    5.0664   -0.2988 H       1  UNL1        0.0618
     89 H           2.0888   -4.0212    4.4337 H       1  UNL1        0.2951
     90 H           7.6796   -2.3179   -2.6244 H       1  UNL1        0.0621
     91 H           3.8692   -4.1535   -2.6226 H       1  UNL1        0.0621
     92 H           8.7154   -4.4850   -2.6277 H       1  UNL1        0.0618
     93 H           4.9288   -6.3140   -2.6266 H       1  UNL1        0.0618
     94 H           7.3504   -6.4937   -2.6285 H       1  UNL1        0.0618
@<TRIPOS>BOND
     1     1    27    1
     2     1    42    1
     3     2    21    2
     4     3    24    2
     5     4    30    2
     6     5    36    1
     7     5    43    1
     8     6    36    2
     9     7    39    1
    10     7    89    1
    11     8    38    2
    12     9    39    2
    13    17    10    1
    14    10    21   am
    15    10    59    1
    16    23    11    1
    17    11    24   am
    18    11    61    1
    19    16    12    1
    20    12    36   am
    21    12    63    1
    22    13    25   ar
    23    13    26   ar
    24    13    66    1
    25    29    14    1
    26    14    30   am
    27    14    71    1
    28    15    38   am
    29    15    82    1
    30    15    83    1
    31    16    18    1
    32    16    21    1
    33    16    53    1
    34    17    20    1
    35    17    24    1
    36    17    54    1
    37    18    19    1
    38    18    55    1
    39    18    56    1
    40    19    22   ar
    41    19    26   ar
    42    20    27    1
    43    20    57    1
    44    20    58    1
    45    22    25   ar
    46    22    31   ar
    47    23    28    1
    48    23    30    1
    49    23    60    1
    50    25    33   ar
    51    26    62    1
    52    27    64    1
    53    27    65    1
    54    28    39    1
    55    28    67    1
    56    28    68    1
    57    29    32    1
    58    29    38    1
    59    29    69    1
    60    31    34   ar
    61    31    70    1
    62    32    37    1
    63    32    72    1
    64    32    73    1
    65    33    35   ar
    66    33    74    1
    67    34    35   ar
    68    34    75    1
    69    35    76    1
    70    37    40   ar
    71    37    41   ar
    72    40    44   ar
    73    40    77    1
    74    41    45   ar
    75    41    78    1
    76    42    79    1
    77    42    80    1
    78    42    81    1
    79    43    47    1
    80    43    84    1
    81    43    85    1
    82    44    46   ar
    83    44    86    1
    84    45    46   ar
    85    45    87    1
    86    46    88    1
    87    47    48   ar
    88    47    49   ar
    89    48    50   ar
    90    48    90    1
    91    49    51   ar
    92    49    91    1
    93    50    52   ar
    94    50    92    1
    95    51    52   ar
    96    51    93    1
    97    52    94    1
