192764
  Marvin  01010821303D          

 94 97  0  0  1  0            999 V2000
   -4.5999   -3.8820   -1.1741 S   0  0  0  0  0  0  0  0  0  0  0  0
   -1.5307    0.3744   -2.1456 O   0  0  0  0  0  0  0  0  0  0  0  0
   -1.7107   -2.4986    1.9091 O   0  0  0  0  0  0  0  0  0  0  0  0
    1.7438    0.3715    4.1207 O   0  0  0  0  0  0  0  0  0  0  0  0
    3.7444   -1.5498   -2.6049 O   0  0  0  0  0  0  0  0  0  0  0  0
    3.4955    0.5852   -2.6320 O   0  0  0  0  0  0  0  0  0  0  0  0
    1.7406   -3.6091    5.1302 O   0  0  0  0  0  0  0  0  0  0  0  0
    1.6389    2.2965    6.8462 O   0  0  0  0  0  0  0  0  0  0  0  0
    0.5581   -2.1202    5.9800 O   0  0  0  0  0  0  0  0  0  0  0  0
   -0.4595   -0.7264   -0.6770 N   0  0  0  0  0  0  0  0  0  0  0  0
   -0.5890   -0.6424    2.1762 N   0  0  0  0  0  0  0  0  0  0  0  0
    1.7200   -0.7197   -2.5983 N   0  0  0  0  0  0  0  0  0  0  0  0
   -1.1497    3.9242   -4.1731 N   0  0  0  0  0  0  0  0  0  0  0  0
   -0.1558    1.4380    4.2481 N   0  0  0  0  0  0  0  0  0  0  0  0
   -0.4088    1.7760    7.1176 N   0  0  0  0  0  0  0  0  0  0  0  0
    0.7166    0.2671   -2.6420 C   0  0  1  0  0  0  0  0  0  0  0  0
   -1.6136   -1.1243    0.0493 C   0  0  1  0  0  0  0  0  0  0  0  0
    0.4447    0.6279   -4.1513 C   0  0  0  0  0  0  0  0  0  0  0  0
   -0.4407    1.8071   -4.3321 C   0  0  0  0  0  0  0  0  0  0  0  0
   -2.4137   -2.2181   -0.7453 C   0  0  0  0  0  0  0  0  0  0  0  0
   -0.4451   -0.0707   -1.8105 C   0  0  0  0  0  0  0  0  0  0  0  0
   -1.8324    1.8282   -4.4704 C   0  0  0  0  0  0  0  0  0  0  0  0
   -0.1335   -0.8526    3.4888 C   0  0  1  0  0  0  0  0  0  0  0  0
   -1.2893   -1.4529    1.4301 C   0  0  0  0  0  0  0  0  0  0  0  0
   -2.2398    3.1518   -4.2772 C   0  0  0  0  0  0  0  0  0  0  0  0
   -0.0587    3.1429   -4.2026 C   0  0  0  0  0  0  0  0  0  0  0  0
   -3.8549   -2.5121   -0.2558 C   0  0  0  0  0  0  0  0  0  0  0  0
    0.7399   -2.1515    3.6324 C   0  0  0  0  0  0  0  0  0  0  0  0
    0.2878    2.5698    4.9562 C   0  0  1  0  0  0  0  0  0  0  0  0
    0.5272    0.3617    3.9628 C   0  0  0  0  0  0  0  0  0  0  0  0
   -2.7870    0.8007   -4.6263 C   0  0  0  0  0  0  0  0  0  0  0  0
   -0.6689    3.7896    4.7902 C   0  0  0  0  0  0  0  0  0  0  0  0
   -3.6026    3.4804   -4.1624 C   0  0  0  0  0  0  0  0  0  0  0  0
   -4.1531    1.1131   -4.4732 C   0  0  0  0  0  0  0  0  0  0  0  0
   -4.5569    2.4439   -4.2320 C   0  0  0  0  0  0  0  0  0  0  0  0
    3.0111   -0.5422   -2.6069 C   0  0  0  0  0  0  0  0  0  0  0  0
   -0.9726    4.1651    3.3798 C   0  0  0  0  0  0  0  0  0  0  0  0
    0.5224    2.2186    6.3537 C   0  0  0  0  0  0  0  0  0  0  0  0
    1.0220   -2.6300    4.9711 C   0  0  0  0  0  0  0  0  0  0  0  0
   -2.2978    4.1376    2.8821 C   0  0  0  0  0  0  0  0  0  0  0  0
    0.0607    4.5564    2.4939 C   0  0  0  0  0  0  0  0  0  0  0  0
   -6.0373   -4.1657   -0.1202 C   0  0  0  0  0  0  0  0  0  0  0  0
    5.0878   -1.6508   -2.6189 C   0  0  0  0  0  0  0  0  0  0  0  0
   -2.5797    4.4693    1.5437 C   0  0  0  0  0  0  0  0  0  0  0  0
   -0.2129    4.8780    1.1515 C   0  0  0  0  0  0  0  0  0  0  0  0
   -1.5350    4.8329    0.6759 C   0  0  0  0  0  0  0  0  0  0  0  0
    5.6687   -3.0166   -2.6218 C   0  0  0  0  0  0  0  0  0  0  0  0
    7.0793   -3.1471   -2.6243 C   0  0  0  0  0  0  0  0  0  0  0  0
    4.8904   -4.1986   -2.6231 C   0  0  0  0  0  0  0  0  0  0  0  0
    7.6954   -4.4117   -2.6265 C   0  0  0  0  0  0  0  0  0  0  0  0
    5.5020   -5.4675   -2.6257 C   0  0  0  0  0  0  0  0  0  0  0  0
    6.9046   -5.5737   -2.6270 C   0  0  0  0  0  0  0  0  0  0  0  0
    1.0908    1.1762   -2.1580 H   0  0  0  0  0  0  0  0  0  0  0  0
   -2.2720   -0.2527    0.1483 H   0  0  0  0  0  0  0  0  0  0  0  0
    1.3841    0.8470   -4.6678 H   0  0  0  0  0  0  0  0  0  0  0  0
    0.0219   -0.2397   -4.6636 H   0  0  0  0  0  0  0  0  0  0  0  0
   -1.8254   -3.1400   -0.7378 H   0  0  0  0  0  0  0  0  0  0  0  0
   -2.5149   -1.9368   -1.7962 H   0  0  0  0  0  0  0  0  0  0  0  0
    0.3730   -0.9509   -0.3130 H   0  0  0  0  0  0  0  0  0  0  0  0
   -1.0266   -0.9950    4.1096 H   0  0  0  0  0  0  0  0  0  0  0  0
   -0.3730    0.1817    1.7869 H   0  0  0  0  0  0  0  0  0  0  0  0
    0.9004    3.4807   -4.0971 H   0  0  0  0  0  0  0  0  0  0  0  0
    1.4263   -1.6085   -2.5933 H   0  0  0  0  0  0  0  0  0  0  0  0
   -4.4803   -1.6244   -0.3721 H   0  0  0  0  0  0  0  0  0  0  0  0
   -3.8592   -2.7832    0.7983 H   0  0  0  0  0  0  0  0  0  0  0  0
   -1.1492    4.8873   -4.0555 H   0  0  0  0  0  0  0  0  0  0  0  0
    1.6811   -2.0011    3.0966 H   0  0  0  0  0  0  0  0  0  0  0  0
    0.2702   -3.0053    3.1457 H   0  0  0  0  0  0  0  0  0  0  0  0
    1.2412    2.8865    4.5171 H   0  0  0  0  0  0  0  0  0  0  0  0
   -2.4997   -0.1664   -4.7911 H   0  0  0  0  0  0  0  0  0  0  0  0
   -1.0543    1.4417    3.9852 H   0  0  0  0  0  0  0  0  0  0  0  0
   -0.2219    4.6638    5.2738 H   0  0  0  0  0  0  0  0  0  0  0  0
   -1.5926    3.5890    5.3415 H   0  0  0  0  0  0  0  0  0  0  0  0
   -3.8912    4.4463   -3.9989 H   0  0  0  0  0  0  0  0  0  0  0  0
   -4.8512    0.3678   -4.5179 H   0  0  0  0  0  0  0  0  0  0  0  0
   -5.5477    2.6556   -4.0990 H   0  0  0  0  0  0  0  0  0  0  0  0
   -3.0783    3.8737    3.4884 H   0  0  0  0  0  0  0  0  0  0  0  0
    1.0309    4.6091    2.8129 H   0  0  0  0  0  0  0  0  0  0  0  0
   -5.7191   -4.4412    0.8863 H   0  0  0  0  0  0  0  0  0  0  0  0
   -6.6213   -4.9854   -0.5369 H   0  0  0  0  0  0  0  0  0  0  0  0
   -6.6570   -3.2697   -0.0764 H   0  0  0  0  0  0  0  0  0  0  0  0
   -1.2847    1.7037    6.7977 H   0  0  0  0  0  0  0  0  0  0  0  0
   -0.2153    1.5170    7.9954 H   0  0  0  0  0  0  0  0  0  0  0  0
    5.4779   -1.1326   -1.7368 H   0  0  0  0  0  0  0  0  0  0  0  0
    5.4638   -1.1380   -3.5105 H   0  0  0  0  0  0  0  0  0  0  0  0
   -3.5427    4.4451    1.2014 H   0  0  0  0  0  0  0  0  0  0  0  0
    0.5479    5.1443    0.5225 H   0  0  0  0  0  0  0  0  0  0  0  0
   -1.7364    5.0664   -0.2988 H   0  0  0  0  0  0  0  0  0  0  0  0
    2.0888   -4.0212    4.4337 H   0  0  0  0  0  0  0  0  0  0  0  0
    7.6796   -2.3179   -2.6244 H   0  0  0  0  0  0  0  0  0  0  0  0
    3.8692   -4.1535   -2.6226 H   0  0  0  0  0  0  0  0  0  0  0  0
    8.7154   -4.4850   -2.6277 H   0  0  0  0  0  0  0  0  0  0  0  0
    4.9288   -6.3140   -2.6266 H   0  0  0  0  0  0  0  0  0  0  0  0
    7.3504   -6.4937   -2.6285 H   0  0  0  0  0  0  0  0  0  0  0  0
  1 27  1  0  0  0  0
  1 42  1  0  0  0  0
  2 21  2  0  0  0  0
  3 24  2  0  0  0  0
  4 30  2  0  0  0  0
  5 36  1  0  0  0  0
  5 43  1  0  0  0  0
  6 36  2  0  0  0  0
  7 39  1  0  0  0  0
  7 89  1  0  0  0  0
  8 38  2  0  0  0  0
  9 39  2  0  0  0  0
 17 10  1  0  0  0  0
 10 21  1  0  0  0  0
 10 59  1  0  0  0  0
 23 11  1  0  0  0  0
 11 24  1  0  0  0  0
 11 61  1  0  0  0  0
 16 12  1  0  0  0  0
 12 36  1  0  0  0  0
 12 63  1  0  0  0  0
 13 25  1  0  0  0  0
 13 26  1  0  0  0  0
 13 66  1  0  0  0  0
 29 14  1  0  0  0  0
 14 30  1  0  0  0  0
 14 71  1  0  0  0  0
 15 38  1  0  0  0  0
 15 82  1  0  0  0  0
 15 83  1  0  0  0  0
 16 18  1  0  0  0  0
 16 21  1  0  0  0  0
 16 53  1  0  0  0  0
 17 20  1  0  0  0  0
 17 24  1  0  0  0  0
 17 54  1  0  0  0  0
 18 19  1  0  0  0  0
 18 55  1  0  0  0  0
 18 56  1  0  0  0  0
 19 22  1  0  0  0  0
 19 26  2  0  0  0  0
 20 27  1  0  0  0  0
 20 57  1  0  0  0  0
 20 58  1  0  0  0  0
 22 25  1  0  0  0  0
 22 31  2  0  0  0  0
 23 28  1  0  0  0  0
 23 30  1  0  0  0  0
 23 60  1  0  0  0  0
 25 33  2  0  0  0  0
 26 62  1  0  0  0  0
 27 64  1  0  0  0  0
 27 65  1  0  0  0  0
 28 39  1  0  0  0  0
 28 67  1  0  0  0  0
 28 68  1  0  0  0  0
 29 32  1  0  0  0  0
 29 38  1  0  0  0  0
 29 69  1  0  0  0  0
 31 34  1  0  0  0  0
 31 70  1  0  0  0  0
 32 37  1  0  0  0  0
 32 72  1  0  0  0  0
 32 73  1  0  0  0  0
 33 35  1  0  0  0  0
 33 74  1  0  0  0  0
 34 35  2  0  0  0  0
 34 75  1  0  0  0  0
 35 76  1  0  0  0  0
 37 40  2  0  0  0  0
 37 41  1  0  0  0  0
 40 44  1  0  0  0  0
 40 77  1  0  0  0  0
 41 45  2  0  0  0  0
 41 78  1  0  0  0  0
 42 79  1  0  0  0  0
 42 80  1  0  0  0  0
 42 81  1  0  0  0  0
 43 47  1  0  0  0  0
 43 84  1  0  0  0  0
 43 85  1  0  0  0  0
 44 46  2  0  0  0  0
 44 86  1  0  0  0  0
 45 46  1  0  0  0  0
 45 87  1  0  0  0  0
 46 88  1  0  0  0  0
 47 48  2  0  0  0  0
 47 49  1  0  0  0  0
 48 50  1  0  0  0  0
 48 90  1  0  0  0  0
 49 51  2  0  0  0  0
 49 91  1  0  0  0  0
 50 52  2  0  0  0  0
 50 92  1  0  0  0  0
 51 52  1  0  0  0  0
 51 93  1  0  0  0  0
 52 94  1  0  0  0  0
M  END

> <PUBCHEM_BONDANNOTATIONS>
17  10  6
23  11  5
16  12  5
13  25  8
13  26  8
29  14  5
19  22  8
19  26  8
22  25  8
22  31  8
25  33  8
31  34  8
33  35  8
34  35  8
37  40  8
37  41  8
40  44  8
41  45  8
44  46  8
45  46  8
47  48  8
47  49  8
48  50  8
49  51  8
50  52  8
51  52  8

> <StdInChI>
InChI=1S/C37H42N6O8S/c1-52-17-16-28(34(47)42-31(20-32(44)45)36(49)41-29(33(38)46)18-23-10-4-2-5-11-23)40-35(48)30(19-25-21-39-27-15-9-8-14-26(25)27)43-37(50)51-22-24-12-6-3-7-13-24/h2-15,21,28-31,39H,16-20,22H2,1H3,(H2,38,46)(H,40,48)(H,41,49)(H,42,47)(H,43,50)(H,44,45)/t28-,29-,30-,31-/m0/s1

> <StdInChIKey>
DLOHHVQNOMRHQK-ORYMTKCHSA-N

> <AuxInfo>
1/1/N:42,46,52,44,45,50,51,34,35,40,41,48,49,31,33,20,27,32,18,28,26,43,37,47,19,22,25,17,29,16,23,39,38,24,21,30,36,15,13,10,14,11,12,7,9,8,3,2,4,6,5,1/E:(4,5)(6,7)(10,11)(12,13)(44,45)/it:im/rA:94cSOOOOOOOONNNNNNCCCCCCCCCCCCCCCCCCCCCCCCCCCCCCCCCCCCCHHHHHHHHHHHHHHHHHHHHHHHHHHHHHHHHHHHHHHHHHH/rB:;;;;;;;;;;;;;;s12;s10;s16;s18;s17;d2s10s16;s19;s11;d3s11s17;s13s22;s13d19;s1s20;s23;s14;d4s14s23;d22;s29;d25;s31;s33d34;s5d6s12;s32;d8s15s29;s7d9s28;d37;s37;s1;s5;s40;d41;d44s45;s43;d47;s47;s48;d49;d50s51;s16;s17;s18;s18;s20;s20;s10;s23;s11;s26;s12;s27;s27;s13;s28;s28;s29;s31;s14;s32;s32;s33;s34;s35;s40;s41;s42;s42;s42;s15;s15;s43;s43;s44;s45;s46;s7;s48;s49;s50;s51;s52;/rC:-4.5999,-3.882,-1.1741;-1.5307,.3744,-2.1456;-1.7107,-2.4986,1.9091;1.7438,.3715,4.1207;3.7444,-1.5498,-2.6049;3.4955,.5852,-2.632;1.7406,-3.6091,5.1302;1.6389,2.2965,6.8462;.5581,-2.1202,5.98;-.4595,-.7264,-.677;-.589,-.6424,2.1762;1.72,-.7197,-2.5983;-1.1497,3.9242,-4.1731;-.1558,1.438,4.2481;-.4088,1.776,7.1176;.7166,.2671,-2.642;-1.6136,-1.1243,.0493;.4447,.6279,-4.1513;-.4407,1.8071,-4.3321;-2.4137,-2.2181,-.7453;-.4451,-.0707,-1.8105;-1.8324,1.8282,-4.4704;-.1335,-.8526,3.4888;-1.2893,-1.4529,1.4301;-2.2398,3.1518,-4.2772;-.0587,3.1429,-4.2026;-3.8549,-2.5121,-.2558;.7399,-2.1515,3.6324;.2878,2.5698,4.9562;.5272,.3617,3.9628;-2.787,.8007,-4.6263;-.6689,3.7896,4.7902;-3.6026,3.4804,-4.1624;-4.1531,1.1131,-4.4732;-4.5569,2.4439,-4.232;3.0111,-.5422,-2.6069;-.9726,4.1651,3.3798;.5224,2.2186,6.3537;1.022,-2.63,4.9711;-2.2978,4.1376,2.8821;.0607,4.5564,2.4939;-6.0373,-4.1657,-.1202;5.0878,-1.6508,-2.6189;-2.5797,4.4693,1.5437;-.2129,4.878,1.1515;-1.535,4.8329,.6759;5.6687,-3.0166,-2.6218;7.0793,-3.1471,-2.6243;4.8904,-4.1986,-2.6231;7.6954,-4.4117,-2.6265;5.502,-5.4675,-2.6257;6.9046,-5.5737,-2.627;1.0908,1.1762,-2.158;-2.272,-.2527,.1483;1.3841,.847,-4.6678;.0219,-.2397,-4.6636;-1.8254,-3.14,-.7378;-2.5149,-1.9368,-1.7962;.373,-.9509,-.313;-1.0266,-.995,4.1096;-.373,.1817,1.7869;.9004,3.4807,-4.0971;1.4263,-1.6085,-2.5933;-4.4803,-1.6244,-.3721;-3.8592,-2.7832,.7983;-1.1492,4.8873,-4.0555;1.6811,-2.0011,3.0966;.2702,-3.0053,3.1457;1.2412,2.8865,4.5171;-2.4997,-.1664,-4.7911;-1.0543,1.4417,3.9852;-.2219,4.6638,5.2738;-1.5926,3.589,5.3415;-3.8912,4.4463,-3.9989;-4.8512,.3678,-4.5179;-5.5477,2.6556,-4.099;-3.0783,3.8737,3.4884;1.0309,4.6091,2.8129;-5.7191,-4.4412,.8863;-6.6213,-4.9854,-.5369;-6.657,-3.2697,-.0764;-1.2847,1.7037,6.7977;-.2153,1.517,7.9954;5.4779,-1.1326,-1.7368;5.4638,-1.138,-3.5105;-3.5427,4.4451,1.2014;.5479,5.1443,.5225;-1.7364,5.0664,-.2988;2.0888,-4.0212,4.4337;7.6796,-2.3179,-2.6244;3.8692,-4.1535,-2.6226;8.7154,-4.485,-2.6277;4.9288,-6.314,-2.6266;7.3504,-6.4937,-2.6285;

> <Formula>
C37 H42 N6 O8 S

> <Mw>
730.8298

> <SMILES>
S(C([H])([H])[H])C([H])([H])C([H])([H])[C@@]([H])(C(N([H])[C@]([H])(C(N([H])[C@]([H])(C(N([H])[H])=O)C([H])([H])C1C([H])=C([H])C([H])=C([H])C=1[H])=O)C([H])([H])C(=O)O[H])=O)N([H])C([C@]([H])(C([H])([H])C1=C([H])N([H])C2=C([H])C([H])=C([H])C([H])=C12)N([H])C(=O)OC([H])([H])C1C([H])=C([H])C([H])=C([H])C=1[H])=O

> <CSID>
167280

$$$$
