@<TRIPOS>MOLECULE
*****
 120 125 0 0 0
SMALL
GASTEIGER

@<TRIPOS>ATOM
      1 O          -4.4449  -15.8249    2.4045 O.2     1  UNL1       -0.2738
      2 O          -8.2493  -19.2175    4.1592 O.2     1  UNL1       -0.2738
      3 O          -6.0675  -14.6323   -2.2990 O.2     1  UNL1       -0.2738
      4 O          -4.2378  -11.9933    1.5567 O.2     1  UNL1       -0.2738
      5 O          -0.0362  -10.5544    1.3786 O.2     1  UNL1       -0.2741
      6 O          -5.7418  -21.5489    0.6272 O.2     1  UNL1       -0.2740
      7 N          -5.9941  -16.1516   -0.5793 N.am    1  UNL1       -0.3022
      8 N          -6.4096  -17.0235    2.1251 N.am    1  UNL1       -0.3022
      9 N          -6.7342  -19.8071    2.5488 N.am    1  UNL1       -0.3025
     10 N          -4.5166  -13.2255   -0.3749 N.am    1  UNL1       -0.3027
     11 N          -2.0695  -10.7115    0.2847 N.am    1  UNL1       -0.3024
     12 N          -1.3714  -18.8570   -1.7502 N.ar    1  UNL1       -0.3604
     13 N          -3.6039  -10.3130   -3.8571 N.ar    1  UNL1       -0.3604
     14 N          -0.6618   -7.8951   -0.0350 N.3     1  UNL1       -0.3196
     15 N          -3.7567  -20.3952    0.7704 N.am    1  UNL1       -0.3278
     16 N          -3.0426  -25.1035    2.5764 N.3     1  UNL1       -0.3300
     17 N           1.1271  -11.2805   -2.5772 N.ar    1  UNL1       -0.3481
     18 N           2.5270  -12.6791   -1.5681 N.ar    1  UNL1       -0.2440
     19 C          -4.8888  -16.7617    0.2013 C.3     1  UNL1        0.1034
     20 C          -3.5183  -16.2538   -0.2941 C.3     1  UNL1        0.0013
     21 C          -6.6258  -17.5279    3.4893 C.3     1  UNL1        0.1034
     22 C          -2.3682  -12.1183    0.0194 C.3     1  UNL1        0.1034
     23 C          -2.4707  -17.2657   -0.6356 C.ar    1  UNL1       -0.0201
     24 C          -1.9822  -12.5596   -1.4043 C.3     1  UNL1        0.0013
     25 C          -5.1921  -16.4908    1.6912 C.2     1  UNL1        0.2343
     26 C          -5.3272  -20.1800    2.5898 C.3     1  UNL1        0.0992
     27 C          -7.4190  -16.5325    4.3752 C.3     1  UNL1       -0.0007
     28 C          -5.8548  -13.7194   -0.0872 C.3     1  UNL1        0.0966
     29 C          -4.9505  -21.0875    3.7632 C.3     1  UNL1       -0.0259
     30 C          -1.0811  -17.1998   -0.2814 C.ar    1  UNL1        0.0029
     31 C          -2.5359  -11.7980   -2.5738 C.ar    1  UNL1       -0.0201
     32 C          -7.3012  -18.9073    3.4363 C.2     1  UNL1        0.2343
     33 C          -5.9924  -14.8599   -1.0877 C.2     1  UNL1        0.2337
     34 C          -5.5725  -22.4910    3.7613 C.3     1  UNL1       -0.0498
     35 C          -3.8073  -12.3988    0.4726 C.2     1  UNL1        0.2343
     36 C          -0.4212  -18.1772   -1.0269 C.ar    1  UNL1        0.0467
     37 C          -2.5992  -18.2917   -1.5542 C.ar    1  UNL1        0.0060
     38 C          -2.1856  -12.0261   -3.9511 C.ar    1  UNL1        0.0029
     39 C          -4.5237  -23.6080    3.8570 C.3     1  UNL1       -0.0406
     40 C          -6.4909  -15.4982    4.9717 C.ar    1  UNL1       -0.0451
     41 C          -2.8291  -11.0530   -4.7144 C.ar    1  UNL1        0.0467
     42 C          -3.4572  -10.7682   -2.5756 C.ar    1  UNL1        0.0060
     43 C          -6.8908  -12.6301   -0.3456 C.3     1  UNL1       -0.0381
     44 C          -0.3087  -16.3638    0.5555 C.ar    1  UNL1       -0.0523
     45 C          -0.3856   -9.2125   -0.6158 C.3     1  UNL1        0.0877
     46 C          -0.7720  -10.2418    0.4485 C.2     1  UNL1        0.2308
     47 C          -4.9939  -20.7933    1.2372 C.2     1  UNL1        0.2308
     48 C           0.9675  -18.3446   -1.0069 C.ar    1  UNL1       -0.0378
     49 C          -1.3503  -12.9526   -4.6162 C.ar    1  UNL1       -0.0523
     50 C          -3.7656  -23.8353    2.5470 C.3     1  UNL1       -0.0069
     51 C           1.0863   -9.2707   -1.0506 C.3     1  UNL1        0.0127
     52 C          -2.6428  -10.9243   -6.0958 C.ar    1  UNL1       -0.0378
     53 C           1.0860  -16.5089    0.5737 C.ar    1  UNL1       -0.0611
     54 C          -6.5220  -14.1751    4.5236 C.ar    1  UNL1       -0.0585
     55 C          -5.5198  -15.8860    5.9092 C.ar    1  UNL1       -0.0585
     56 C           1.7130  -17.4752   -0.2082 C.ar    1  UNL1       -0.0598
     57 C          -1.1555  -12.8385   -5.9988 C.ar    1  UNL1       -0.0611
     58 C          -1.7858  -11.8323   -6.7231 C.ar    1  UNL1       -0.0598
     59 C           1.5460  -10.6309   -1.4454 C.ar    1  UNL1        0.0373
     60 C          -5.5382  -13.2776    4.9331 C.ar    1  UNL1       -0.0615
     61 C          -4.5310  -14.9902    6.3045 C.ar    1  UNL1       -0.0615
     62 C          -4.5316  -13.6900    5.8057 C.ar    1  UNL1       -0.0617
     63 C           2.4321  -11.5105   -0.8580 C.ar    1  UNL1        0.0485
     64 C           1.7162  -12.5148   -2.5897 C.ar    1  UNL1        0.0935
     65 H          -7.2235  -16.8635    1.5402 H       1  UNL1        0.1495
     66 H          -5.6409  -17.7035    3.9368 H       1  UNL1        0.0598
     67 H          -6.4306  -16.8117   -1.2199 H       1  UNL1        0.1495
     68 H          -4.9642  -17.8445    0.0540 H       1  UNL1        0.0598
     69 H          -3.6553  -15.7240   -1.2456 H       1  UNL1        0.0337
     70 H          -3.0961  -15.5229    0.3998 H       1  UNL1        0.0337
     71 H          -8.2149  -16.0434    3.7981 H       1  UNL1        0.0336
     72 H          -7.9163  -17.0370    5.2132 H       1  UNL1        0.0336
     73 H          -7.3701  -20.4852    2.1396 H       1  UNL1        0.1495
     74 H          -4.7510  -19.2544    2.6825 H       1  UNL1        0.0594
     75 H          -1.1702  -19.6054   -2.3993 H       1  UNL1        0.1653
     76 H          -3.4549  -18.6407   -2.1137 H       1  UNL1        0.0810
     77 H          -3.8551  -21.1525    3.7956 H       1  UNL1        0.0288
     78 H          -5.2279  -20.5870    4.7010 H       1  UNL1        0.0288
     79 H          -3.2443  -21.0106    0.1457 H       1  UNL1        0.1450
     80 H          -3.1636  -19.7926    1.3361 H       1  UNL1        0.1450
     81 H          -4.2706  -13.2215   -1.3604 H       1  UNL1        0.1495
     82 H          -5.9043  -14.0685    0.9451 H       1  UNL1        0.0592
     83 H          -2.8258  -10.0340    0.2939 H       1  UNL1        0.1495
     84 H          -1.7513  -12.7011    0.7163 H       1  UNL1        0.0598
     85 H          -0.8914  -12.5205   -1.4589 H       1  UNL1        0.0337
     86 H          -2.2163  -13.6225   -1.5440 H       1  UNL1        0.0337
     87 H          -7.2832  -12.2332    0.5970 H       1  UNL1        0.0252
     88 H          -6.4628  -11.7884   -0.9015 H       1  UNL1        0.0252
     89 H          -7.7409  -13.0092   -0.9188 H       1  UNL1        0.0252
     90 H          -6.2335  -22.5767    4.6342 H       1  UNL1        0.0266
     91 H          -6.2196  -22.6592    2.8935 H       1  UNL1        0.0266
     92 H          -0.7709  -15.6001    1.1741 H       1  UNL1        0.0624
     93 H          -4.1915   -9.5378   -4.1323 H       1  UNL1        0.1653
     94 H          -4.0049  -10.2913   -1.7765 H       1  UNL1        0.0810
     95 H          -3.8132  -23.3780    4.6617 H       1  UNL1        0.0277
     96 H          -5.0413  -24.5313    4.1469 H       1  UNL1        0.0277
     97 H           1.4495  -19.1112   -1.6067 H       1  UNL1        0.0638
     98 H          -0.8403  -13.7401   -4.0686 H       1  UNL1        0.0624
     99 H          -2.3736  -25.1064    3.3456 H       1  UNL1        0.1182
    100 H          -3.6938  -25.8651    2.7636 H       1  UNL1        0.1182
    101 H          -3.0494  -23.0257    2.3767 H       1  UNL1        0.0422
    102 H          -4.4528  -23.8487    1.6965 H       1  UNL1        0.0422
    103 H          -7.2802  -13.8488    3.8171 H       1  UNL1        0.0620
    104 H          -5.4947  -16.9068    6.2833 H       1  UNL1        0.0620
    105 H          -3.1262  -10.1336   -6.6580 H       1  UNL1        0.0638
    106 H           1.6891  -15.8533    1.1962 H       1  UNL1        0.0618
    107 H          -0.2220   -7.8195    0.8820 H       1  UNL1        0.1189
    108 H          -1.6633   -7.7966    0.1265 H       1  UNL1        0.1189
    109 H          -1.0222   -9.3360   -1.4989 H       1  UNL1        0.0558
    110 H           1.2380   -8.5938   -1.9023 H       1  UNL1        0.0348
    111 H           1.7385   -8.8988   -0.2496 H       1  UNL1        0.0348
    112 H           2.7980  -17.5620   -0.2001 H       1  UNL1        0.0618
    113 H          -0.4904  -13.5314   -6.5079 H       1  UNL1        0.0618
    114 H           0.4463  -10.9397   -3.2444 H       1  UNL1        0.1665
    115 H           1.4996  -13.2503   -3.3500 H       1  UNL1        0.1027
    116 H           2.9934  -11.3622    0.0529 H       1  UNL1        0.0848
    117 H          -1.6056  -11.7445   -7.7924 H       1  UNL1        0.0618
    118 H          -5.5367  -12.2639    4.5429 H       1  UNL1        0.0618
    119 H          -3.7413  -15.3183    6.9742 H       1  UNL1        0.0618
    120 H          -3.7396  -13.0019    6.0858 H       1  UNL1        0.0618
@<TRIPOS>BOND
     1     1    25    2
     2     2    32    2
     3     3    33    2
     4     4    35    2
     5     5    46    2
     6     6    47    2
     7    19     7    1
     8     7    33   am
     9    21     8    1
    10     8    25   am
    11    26     9    1
    12     9    32   am
    13    28    10    1
    14    10    35   am
    15    22    11    1
    16    11    46   am
    17    12    36   ar
    18    12    37   ar
    19    13    41   ar
    20    13    42   ar
    21    45    14    1
    22    15    47   am
    23    16    50    1
    24    17    59   ar
    25    17    64   ar
    26    18    63   ar
    27    18    64   ar
    28    19    20    1
    29    19    25    1
    30    20    23    1
    31    21    27    1
    32    21    32    1
    33    22    24    1
    34    22    35    1
    35    23    30   ar
    36    23    37   ar
    37    24    31    1
    38    26    29    1
    39    26    47    1
    40    27    40    1
    41    28    33    1
    42    28    43    1
    43    29    34    1
    44    30    36   ar
    45    30    44   ar
    46    31    38   ar
    47    31    42   ar
    48    34    39    1
    49    36    48   ar
    50    38    41   ar
    51    38    49   ar
    52    39    50    1
    53    40    54   ar
    54    40    55   ar
    55    41    52   ar
    56    44    53   ar
    57    45    46    1
    58    45    51    1
    59    48    56   ar
    60    49    57   ar
    61    51    59    1
    62    52    58   ar
    63    53    56   ar
    64    54    60   ar
    65    55    61   ar
    66    57    58   ar
    67    59    63   ar
    68    60    62   ar
    69    61    62   ar
    70     8    65    1
    71    21    66    1
    72     7    67    1
    73    19    68    1
    74    20    69    1
    75    20    70    1
    76    27    71    1
    77    27    72    1
    78     9    73    1
    79    26    74    1
    80    12    75    1
    81    37    76    1
    82    29    77    1
    83    29    78    1
    84    15    79    1
    85    15    80    1
    86    10    81    1
    87    28    82    1
    88    11    83    1
    89    22    84    1
    90    24    85    1
    91    24    86    1
    92    43    87    1
    93    43    88    1
    94    43    89    1
    95    34    90    1
    96    34    91    1
    97    44    92    1
    98    13    93    1
    99    42    94    1
   100    39    95    1
   101    39    96    1
   102    48    97    1
   103    49    98    1
   104    16    99    1
   105    16   100    1
   106    50   101    1
   107    50   102    1
   108    54   103    1
   109    55   104    1
   110    52   105    1
   111    53   106    1
   112    14   107    1
   113    14   108    1
   114    45   109    1
   115    51   110    1
   116    51   111    1
   117    56   112    1
   118    57   113    1
   119    17   114    1
   120    64   115    1
   121    63   116    1
   122    58   117    1
   123    60   118    1
   124    61   119    1
   125    62   120    1
