
  1019              3D

120125  0  0  1  0  0  0  0  0999 V2000
   -4.4449  -15.8249    2.4045 O   0  0  0  0  0  0  0  0  0  0  0  0
   -8.2493  -19.2175    4.1592 O   0  0  0  0  0  0  0  0  0  0  0  0
   -6.0675  -14.6323   -2.2990 O   0  0  0  0  0  0  0  0  0  0  0  0
   -4.2378  -11.9933    1.5567 O   0  0  0  0  0  0  0  0  0  0  0  0
   -0.0362  -10.5544    1.3786 O   0  0  0  0  0  0  0  0  0  0  0  0
   -5.7418  -21.5489    0.6272 O   0  0  0  0  0  0  0  0  0  0  0  0
   -5.9941  -16.1516   -0.5793 N   0  0  0  0  0  0  0  0  0  0  0  0
   -6.4096  -17.0235    2.1251 N   0  0  0  0  0  0  0  0  0  0  0  0
   -6.7342  -19.8071    2.5488 N   0  0  0  0  0  0  0  0  0  0  0  0
   -4.5166  -13.2255   -0.3749 N   0  0  0  0  0  0  0  0  0  0  0  0
   -2.0695  -10.7115    0.2847 N   0  0  0  0  0  0  0  0  0  0  0  0
   -1.3714  -18.8570   -1.7502 N   0  0  0  0  0  0  0  0  0  0  0  0
   -3.6039  -10.3130   -3.8571 N   0  0  0  0  0  0  0  0  0  0  0  0
   -0.6618   -7.8951   -0.0350 N   0  0  0  0  0  0  0  0  0  0  0  0
   -3.7567  -20.3952    0.7704 N   0  0  0  0  0  0  0  0  0  0  0  0
   -3.0426  -25.1035    2.5764 N   0  0  0  0  0  0  0  0  0  0  0  0
    1.1271  -11.2805   -2.5772 N   0  0  0  0  0  0  0  0  0  0  0  0
    2.5270  -12.6791   -1.5681 N   0  0  0  0  0  0  0  0  0  0  0  0
   -4.8888  -16.7617    0.2013 C   0  0  0  0  0  0  0  0  0  0  0  0
   -3.5183  -16.2538   -0.2941 C   0  0  0  0  0  0  0  0  0  0  0  0
   -6.6258  -17.5279    3.4893 C   0  0  0  0  0  0  0  0  0  0  0  0
   -2.3682  -12.1183    0.0194 C   0  0  0  0  0  0  0  0  0  0  0  0
   -2.4707  -17.2657   -0.6356 C   0  0  0  0  0  0  0  0  0  0  0  0
   -1.9822  -12.5596   -1.4043 C   0  0  0  0  0  0  0  0  0  0  0  0
   -5.1921  -16.4908    1.6912 C   0  0  0  0  0  0  0  0  0  0  0  0
   -5.3272  -20.1800    2.5898 C   0  0  0  0  0  0  0  0  0  0  0  0
   -7.4190  -16.5325    4.3752 C   0  0  0  0  0  0  0  0  0  0  0  0
   -5.8548  -13.7194   -0.0872 C   0  0  0  0  0  0  0  0  0  0  0  0
   -4.9505  -21.0875    3.7632 C   0  0  0  0  0  0  0  0  0  0  0  0
   -1.0811  -17.1998   -0.2814 C   0  0  0  0  0  0  0  0  0  0  0  0
   -2.5359  -11.7980   -2.5738 C   0  0  0  0  0  0  0  0  0  0  0  0
   -7.3012  -18.9073    3.4363 C   0  0  0  0  0  0  0  0  0  0  0  0
   -5.9924  -14.8599   -1.0877 C   0  0  0  0  0  0  0  0  0  0  0  0
   -5.5725  -22.4910    3.7613 C   0  0  0  0  0  0  0  0  0  0  0  0
   -3.8073  -12.3988    0.4726 C   0  0  0  0  0  0  0  0  0  0  0  0
   -0.4212  -18.1772   -1.0269 C   0  0  0  0  0  0  0  0  0  0  0  0
   -2.5992  -18.2917   -1.5542 C   0  0  0  0  0  0  0  0  0  0  0  0
   -2.1856  -12.0261   -3.9511 C   0  0  0  0  0  0  0  0  0  0  0  0
   -4.5237  -23.6080    3.8570 C   0  0  0  0  0  0  0  0  0  0  0  0
   -6.4909  -15.4982    4.9717 C   0  0  0  0  0  0  0  0  0  0  0  0
   -2.8291  -11.0530   -4.7144 C   0  0  0  0  0  0  0  0  0  0  0  0
   -3.4572  -10.7682   -2.5756 C   0  0  0  0  0  0  0  0  0  0  0  0
   -6.8908  -12.6301   -0.3456 C   0  0  0  0  0  0  0  0  0  0  0  0
   -0.3087  -16.3638    0.5555 C   0  0  0  0  0  0  0  0  0  0  0  0
   -0.3856   -9.2125   -0.6158 C   0  0  0  0  0  0  0  0  0  0  0  0
   -0.7720  -10.2418    0.4485 C   0  0  0  0  0  0  0  0  0  0  0  0
   -4.9939  -20.7933    1.2372 C   0  0  0  0  0  0  0  0  0  0  0  0
    0.9675  -18.3446   -1.0069 C   0  0  0  0  0  0  0  0  0  0  0  0
   -1.3503  -12.9526   -4.6162 C   0  0  0  0  0  0  0  0  0  0  0  0
   -3.7656  -23.8353    2.5470 C   0  0  0  0  0  0  0  0  0  0  0  0
    1.0863   -9.2707   -1.0506 C   0  0  0  0  0  0  0  0  0  0  0  0
   -2.6428  -10.9243   -6.0958 C   0  0  0  0  0  0  0  0  0  0  0  0
    1.0860  -16.5089    0.5737 C   0  0  0  0  0  0  0  0  0  0  0  0
   -6.5220  -14.1751    4.5236 C   0  0  0  0  0  0  0  0  0  0  0  0
   -5.5198  -15.8860    5.9092 C   0  0  0  0  0  0  0  0  0  0  0  0
    1.7130  -17.4752   -0.2082 C   0  0  0  0  0  0  0  0  0  0  0  0
   -1.1555  -12.8385   -5.9988 C   0  0  0  0  0  0  0  0  0  0  0  0
   -1.7858  -11.8323   -6.7231 C   0  0  0  0  0  0  0  0  0  0  0  0
    1.5460  -10.6309   -1.4454 C   0  0  0  0  0  0  0  0  0  0  0  0
   -5.5382  -13.2776    4.9331 C   0  0  0  0  0  0  0  0  0  0  0  0
   -4.5310  -14.9902    6.3045 C   0  0  0  0  0  0  0  0  0  0  0  0
   -4.5316  -13.6900    5.8057 C   0  0  0  0  0  0  0  0  0  0  0  0
    2.4321  -11.5105   -0.8580 C   0  0  0  0  0  0  0  0  0  0  0  0
    1.7162  -12.5148   -2.5897 C   0  0  0  0  0  0  0  0  0  0  0  0
   -7.2235  -16.8635    1.5402 H   0  0  0  0  0  0  0  0  0  0  0  0
   -5.6409  -17.7035    3.9368 H   0  0  0  0  0  0  0  0  0  0  0  0
   -6.4306  -16.8117   -1.2199 H   0  0  0  0  0  0  0  0  0  0  0  0
   -4.9642  -17.8445    0.0540 H   0  0  0  0  0  0  0  0  0  0  0  0
   -3.6553  -15.7240   -1.2456 H   0  0  0  0  0  0  0  0  0  0  0  0
   -3.0961  -15.5229    0.3998 H   0  0  0  0  0  0  0  0  0  0  0  0
   -8.2149  -16.0434    3.7981 H   0  0  0  0  0  0  0  0  0  0  0  0
   -7.9163  -17.0370    5.2132 H   0  0  0  0  0  0  0  0  0  0  0  0
   -7.3701  -20.4852    2.1396 H   0  0  0  0  0  0  0  0  0  0  0  0
   -4.7510  -19.2544    2.6825 H   0  0  0  0  0  0  0  0  0  0  0  0
   -1.1702  -19.6054   -2.3993 H   0  0  0  0  0  0  0  0  0  0  0  0
   -3.4549  -18.6407   -2.1137 H   0  0  0  0  0  0  0  0  0  0  0  0
   -3.8551  -21.1525    3.7956 H   0  0  0  0  0  0  0  0  0  0  0  0
   -5.2279  -20.5870    4.7010 H   0  0  0  0  0  0  0  0  0  0  0  0
   -3.2443  -21.0106    0.1457 H   0  0  0  0  0  0  0  0  0  0  0  0
   -3.1636  -19.7926    1.3361 H   0  0  0  0  0  0  0  0  0  0  0  0
   -4.2706  -13.2215   -1.3604 H   0  0  0  0  0  0  0  0  0  0  0  0
   -5.9043  -14.0685    0.9451 H   0  0  0  0  0  0  0  0  0  0  0  0
   -2.8258  -10.0340    0.2939 H   0  0  0  0  0  0  0  0  0  0  0  0
   -1.7513  -12.7011    0.7163 H   0  0  0  0  0  0  0  0  0  0  0  0
   -0.8914  -12.5205   -1.4589 H   0  0  0  0  0  0  0  0  0  0  0  0
   -2.2163  -13.6225   -1.5440 H   0  0  0  0  0  0  0  0  0  0  0  0
   -7.2832  -12.2332    0.5970 H   0  0  0  0  0  0  0  0  0  0  0  0
   -6.4628  -11.7884   -0.9015 H   0  0  0  0  0  0  0  0  0  0  0  0
   -7.7409  -13.0092   -0.9188 H   0  0  0  0  0  0  0  0  0  0  0  0
   -6.2335  -22.5767    4.6342 H   0  0  0  0  0  0  0  0  0  0  0  0
   -6.2196  -22.6592    2.8935 H   0  0  0  0  0  0  0  0  0  0  0  0
   -0.7709  -15.6001    1.1741 H   0  0  0  0  0  0  0  0  0  0  0  0
   -4.1915   -9.5378   -4.1323 H   0  0  0  0  0  0  0  0  0  0  0  0
   -4.0049  -10.2913   -1.7765 H   0  0  0  0  0  0  0  0  0  0  0  0
   -3.8132  -23.3780    4.6617 H   0  0  0  0  0  0  0  0  0  0  0  0
   -5.0413  -24.5313    4.1469 H   0  0  0  0  0  0  0  0  0  0  0  0
    1.4495  -19.1112   -1.6067 H   0  0  0  0  0  0  0  0  0  0  0  0
   -0.8403  -13.7401   -4.0686 H   0  0  0  0  0  0  0  0  0  0  0  0
   -2.3736  -25.1064    3.3456 H   0  0  0  0  0  0  0  0  0  0  0  0
   -3.6938  -25.8651    2.7636 H   0  0  0  0  0  0  0  0  0  0  0  0
   -3.0494  -23.0257    2.3767 H   0  0  0  0  0  0  0  0  0  0  0  0
   -4.4528  -23.8487    1.6965 H   0  0  0  0  0  0  0  0  0  0  0  0
   -7.2802  -13.8488    3.8171 H   0  0  0  0  0  0  0  0  0  0  0  0
   -5.4947  -16.9068    6.2833 H   0  0  0  0  0  0  0  0  0  0  0  0
   -3.1262  -10.1336   -6.6580 H   0  0  0  0  0  0  0  0  0  0  0  0
    1.6891  -15.8533    1.1962 H   0  0  0  0  0  0  0  0  0  0  0  0
   -0.2220   -7.8195    0.8820 H   0  0  0  0  0  0  0  0  0  0  0  0
   -1.6633   -7.7966    0.1265 H   0  0  0  0  0  0  0  0  0  0  0  0
   -1.0222   -9.3360   -1.4989 H   0  0  0  0  0  0  0  0  0  0  0  0
    1.2380   -8.5938   -1.9023 H   0  0  0  0  0  0  0  0  0  0  0  0
    1.7385   -8.8988   -0.2496 H   0  0  0  0  0  0  0  0  0  0  0  0
    2.7980  -17.5620   -0.2001 H   0  0  0  0  0  0  0  0  0  0  0  0
   -0.4904  -13.5314   -6.5079 H   0  0  0  0  0  0  0  0  0  0  0  0
    0.4463  -10.9397   -3.2444 H   0  0  0  0  0  0  0  0  0  0  0  0
    1.4996  -13.2503   -3.3500 H   0  0  0  0  0  0  0  0  0  0  0  0
    2.9934  -11.3622    0.0529 H   0  0  0  0  0  0  0  0  0  0  0  0
   -1.6056  -11.7445   -7.7924 H   0  0  0  0  0  0  0  0  0  0  0  0
   -5.5367  -12.2639    4.5429 H   0  0  0  0  0  0  0  0  0  0  0  0
   -3.7413  -15.3183    6.9742 H   0  0  0  0  0  0  0  0  0  0  0  0
   -3.7396  -13.0019    6.0858 H   0  0  0  0  0  0  0  0  0  0  0  0
  1 25  2  0  0  0  0
  2 32  2  0  0  0  0
  3 33  2  0  0  0  0
  4 35  2  0  0  0  0
  5 46  2  0  0  0  0
  6 47  2  0  0  0  0
 19  7  1  0  0  0  0
  7 33  1  0  0  0  0
 21  8  1  0  0  0  0
  8 25  1  0  0  0  0
 26  9  1  0  0  0  0
  9 32  1  0  0  0  0
 28 10  1  0  0  0  0
 10 35  1  0  0  0  0
 22 11  1  0  0  0  0
 11 46  1  0  0  0  0
 12 36  1  0  0  0  0
 12 37  1  0  0  0  0
 13 41  1  0  0  0  0
 13 42  1  0  0  0  0
 45 14  1  0  0  0  0
 15 47  1  0  0  0  0
 16 50  1  0  0  0  0
 17 59  1  0  0  0  0
 17 64  1  0  0  0  0
 18 63  1  0  0  0  0
 18 64  2  0  0  0  0
 19 20  1  0  0  0  0
 19 25  1  0  0  0  0
 20 23  1  0  0  0  0
 21 27  1  0  0  0  0
 21 32  1  0  0  0  0
 22 24  1  0  0  0  0
 22 35  1  0  0  0  0
 23 30  1  0  0  0  0
 23 37  2  0  0  0  0
 24 31  1  0  0  0  0
 26 29  1  0  0  0  0
 26 47  1  0  0  0  0
 27 40  1  0  0  0  0
 28 33  1  0  0  0  0
 28 43  1  0  0  0  0
 29 34  1  0  0  0  0
 30 36  1  0  0  0  0
 30 44  2  0  0  0  0
 31 38  1  0  0  0  0
 31 42  2  0  0  0  0
 34 39  1  0  0  0  0
 36 48  2  0  0  0  0
 38 41  1  0  0  0  0
 38 49  2  0  0  0  0
 39 50  1  0  0  0  0
 40 54  2  0  0  0  0
 40 55  1  0  0  0  0
 41 52  2  0  0  0  0
 44 53  1  0  0  0  0
 45 46  1  0  0  0  0
 45 51  1  0  0  0  0
 48 56  1  0  0  0  0
 49 57  1  0  0  0  0
 51 59  1  0  0  0  0
 52 58  1  0  0  0  0
 53 56  2  0  0  0  0
 54 60  1  0  0  0  0
 55 61  2  0  0  0  0
 57 58  2  0  0  0  0
 59 63  2  0  0  0  0
 60 62  2  0  0  0  0
 61 62  1  0  0  0  0
  8 65  1  0  0  0  0
 21 66  1  0  0  0  0
  7 67  1  0  0  0  0
 19 68  1  0  0  0  0
 20 69  1  0  0  0  0
 20 70  1  0  0  0  0
 27 71  1  0  0  0  0
 27 72  1  0  0  0  0
  9 73  1  0  0  0  0
 26 74  1  0  0  0  0
 12 75  1  0  0  0  0
 37 76  1  0  0  0  0
 29 77  1  0  0  0  0
 29 78  1  0  0  0  0
 15 79  1  0  0  0  0
 15 80  1  0  0  0  0
 10 81  1  0  0  0  0
 28 82  1  0  0  0  0
 11 83  1  0  0  0  0
 22 84  1  0  0  0  0
 24 85  1  0  0  0  0
 24 86  1  0  0  0  0
 43 87  1  0  0  0  0
 43 88  1  0  0  0  0
 43 89  1  0  0  0  0
 34 90  1  0  0  0  0
 34 91  1  0  0  0  0
 44 92  1  0  0  0  0
 13 93  1  0  0  0  0
 42 94  1  0  0  0  0
 39 95  1  0  0  0  0
 39 96  1  0  0  0  0
 48 97  1  0  0  0  0
 49 98  1  0  0  0  0
 16 99  1  0  0  0  0
 16100  1  0  0  0  0
 50101  1  0  0  0  0
 50102  1  0  0  0  0
 54103  1  0  0  0  0
 55104  1  0  0  0  0
 52105  1  0  0  0  0
 53106  1  0  0  0  0
 14107  1  0  0  0  0
 14108  1  0  0  0  0
 45109  1  0  0  0  0
 51110  1  0  0  0  0
 51111  1  0  0  0  0
 56112  1  0  0  0  0
 57113  1  0  0  0  0
 17114  1  0  0  0  0
 64115  1  0  0  0  0
 63116  1  0  0  0  0
 58117  1  0  0  0  0
 60118  1  0  0  0  0
 61119  1  0  0  0  0
 62120  1  0  0  0  0
M  END

> <energy>
194.0451534961058

> <StdInChI>
InChI=1S/C46H56N12O6/c1-27(54-44(62)39(20-29-23-51-35-15-7-5-13-32(29)35)57-43(61)34(48)22-31-25-50-26-53-31)42(60)56-40(21-30-24-52-36-16-8-6-14-33(30)36)46(64)58-38(19-28-11-3-2-4-12-28)45(63)55-37(41(49)59)17-9-10-18-47/h2-8,11-16,23-27,34,37-40,51-52H,9-10,17-22,47-48H2,1H3,(H2,49,59)(H,50,53)(H,54,62)(H,55,63)(H,56,60)(H,57,61)(H,58,64)/t27-,34-,37-,38-,39+,40-/m0/s1

> <StdInChIKey>
WZHKXNSOCOQYQX-KAGZITNASA-N

> <AuxInfo>
1/1/N:43,62,60,61,57,53,58,56,34,39,54,55,49,44,52,48,29,50,27,24,20,51,42,37,63,64,28,40,31,23,59,38,30,45,41,36,26,21,22,19,47,33,46,35,32,25,16,14,15,18,13,12,17,10,9,7,11,8,6,3,5,4,2,1/E:(3,4)(11,12)/it:im/rA:120cOOOOOONNNNNNNNNNNNCCCCCCCCCCCCCCCCCCCCCCCCCCCCCCCCCCCCCCCCCCCCCCHHHHHHHHHHHHHHHHHHHHHHHHHHHHHHHHHHHHHHHHHHHHHHHHHHHHHHHH/rB:;;;;;;;;;;;;;;;;;s7;s19;s8;s11;s20;s22;d1s8s19;s9;s21;s10;s26;s23;s24;d2s9s21;d3s7s28;s29;d4s10s22;s12s30;s12d23;s31;s34;s27;s13s38;s13d31;s28;d30;s14;d5s11s45;d6s15s26;d36;d38;s16s39;s45;d41;s44;d40;s40;s48d53;s49;s52d57;s17s51;s54;d55;d60s61;s18d59;s17d18;s8;s21;s7;s19;s20;s20;s27;s27;s9;s26;s12;s37;s29;s29;s15;s15;s10;s28;s11;s22;s24;s24;s43;s43;s43;s34;s34;s44;s13;s42;s39;s39;s48;s49;s16;s16;s50;s50;s54;s55;s52;s53;s14;s14;s45;s51;s51;s56;s57;s17;s64;s63;s58;s60;s61;s62;/rC:-4.4449,-15.8249,2.4045;-8.2493,-19.2175,4.1592;-6.0675,-14.6323,-2.299;-4.2378,-11.9933,1.5567;-.0362,-10.5544,1.3786;-5.7418,-21.5489,.6272;-5.9941,-16.1516,-.5793;-6.4096,-17.0235,2.1251;-6.7342,-19.8071,2.5488;-4.5166,-13.2255,-.3749;-2.0695,-10.7115,.2847;-1.3714,-18.857,-1.7502;-3.6039,-10.313,-3.8571;-.6618,-7.8951,-.035;-3.7567,-20.3952,.7704;-3.0426,-25.1035,2.5764;1.1271,-11.2805,-2.5772;2.527,-12.6791,-1.5681;-4.8888,-16.7617,.2013;-3.5183,-16.2538,-.2941;-6.6258,-17.5279,3.4893;-2.3682,-12.1183,.0194;-2.4707,-17.2657,-.6356;-1.9822,-12.5596,-1.4043;-5.1921,-16.4908,1.6912;-5.3272,-20.18,2.5898;-7.419,-16.5325,4.3752;-5.8548,-13.7194,-.0872;-4.9505,-21.0875,3.7632;-1.0811,-17.1998,-.2814;-2.5359,-11.798,-2.5738;-7.3012,-18.9073,3.4363;-5.9924,-14.8599,-1.0877;-5.5725,-22.491,3.7613;-3.8073,-12.3988,.4726;-.4212,-18.1772,-1.0269;-2.5992,-18.2917,-1.5542;-2.1856,-12.0261,-3.9511;-4.5237,-23.608,3.857;-6.4909,-15.4982,4.9717;-2.8291,-11.053,-4.7144;-3.4572,-10.7682,-2.5756;-6.8908,-12.6301,-.3456;-.3087,-16.3638,.5555;-.3856,-9.2125,-.6158;-.772,-10.2418,.4485;-4.9939,-20.7933,1.2372;.9675,-18.3446,-1.0069;-1.3503,-12.9526,-4.6162;-3.7656,-23.8353,2.547;1.0863,-9.2707,-1.0506;-2.6428,-10.9243,-6.0958;1.086,-16.5089,.5737;-6.522,-14.1751,4.5236;-5.5198,-15.886,5.9092;1.713,-17.4752,-.2082;-1.1555,-12.8385,-5.9988;-1.7858,-11.8323,-6.7231;1.546,-10.6309,-1.4454;-5.5382,-13.2776,4.9331;-4.531,-14.9902,6.3045;-4.5316,-13.69,5.8057;2.4321,-11.5105,-.858;1.7162,-12.5148,-2.5897;-7.2235,-16.8635,1.5402;-5.6409,-17.7035,3.9368;-6.4306,-16.8117,-1.2199;-4.9642,-17.8445,.054;-3.6553,-15.724,-1.2456;-3.0961,-15.5229,.3998;-8.2149,-16.0434,3.7981;-7.9163,-17.037,5.2132;-7.3701,-20.4852,2.1396;-4.751,-19.2544,2.6825;-1.1702,-19.6054,-2.3993;-3.4549,-18.6407,-2.1137;-3.8551,-21.1525,3.7956;-5.2279,-20.587,4.701;-3.2443,-21.0106,.1457;-3.1636,-19.7926,1.3361;-4.2706,-13.2215,-1.3604;-5.9043,-14.0685,.9451;-2.8258,-10.034,.2939;-1.7513,-12.7011,.7163;-.8914,-12.5205,-1.4589;-2.2163,-13.6225,-1.544;-7.2832,-12.2332,.597;-6.4628,-11.7884,-.9015;-7.7409,-13.0092,-.9188;-6.2335,-22.5767,4.6342;-6.2196,-22.6592,2.8935;-.7709,-15.6001,1.1741;-4.1915,-9.5378,-4.1323;-4.0049,-10.2913,-1.7765;-3.8132,-23.378,4.6617;-5.0413,-24.5313,4.1469;1.4495,-19.1112,-1.6067;-.8403,-13.7401,-4.0686;-2.3736,-25.1064,3.3456;-3.6938,-25.8651,2.7636;-3.0494,-23.0257,2.3767;-4.4528,-23.8487,1.6965;-7.2802,-13.8488,3.8171;-5.4947,-16.9068,6.2833;-3.1262,-10.1336,-6.658;1.6891,-15.8533,1.1962;-.222,-7.8195,.882;-1.6633,-7.7966,.1265;-1.0222,-9.336,-1.4989;1.238,-8.5938,-1.9023;1.7385,-8.8988,-.2496;2.798,-17.562,-.2001;-.4904,-13.5314,-6.5079;.4463,-10.9397,-3.2444;1.4996,-13.2503,-3.35;2.9934,-11.3622,.0529;-1.6056,-11.7445,-7.7924;-5.5367,-12.2639,4.5429;-3.7413,-15.3183,6.9742;-3.7396,-13.0019,6.0858;

> <Formula>
C46 H56 N12 O6

> <Mw>
873.0137

> <SMILES>
O=C([C@]([H])(C([H])([H])C1=C([H])N([H])C2=C([H])C([H])=C([H])C([H])=C12)[N@]([H])C([C@]([H])(C([H])([H])[H])N([H])C([C@@]([H])(C([H])([H])C1=C([H])N([H])C2=C([H])C([H])=C([H])C([H])=C12)N([H])C([C@]([H])(C([H])([H])C1=C([H])N=C([H])N1[H])N([H])[H])=O)=O)=O)N([H])[C@]([H])(C(N([H])[C@]([H])(C(N([H])[H])=O)C([H])([H])C([H])([H])C([H])([H])C([H])([H])N([H])[H])=O)C([H])([H])C1C([H])=C([H])C([H])=C([H])C=1[H]

> <CSID>
26333269

$$$$
