33032
  Marvin  12300703363D          

 19 18  0  0  1  0            999 V2000
    2.8753    0.1790    1.1733 O   0  0  0  0  0  0  0  0  0  0  0  0
   -3.1643    1.9968   -0.2266 O   0  0  0  0  0  0  0  0  0  0  0  0
    1.0220    0.4179    2.0492 O   0  0  0  0  0  0  0  0  0  0  0  0
   -3.3155   -0.0776   -0.2310 O   0  0  0  0  0  0  0  0  0  0  0  0
    1.5234   -1.9772   -0.1572 N   0  0  0  0  0  0  0  0  0  0  0  0
   -0.4968   -0.5635   -0.1868 C   0  0  0  0  0  0  0  0  0  0  0  0
    1.0584   -0.5819   -0.0911 C   0  0  1  0  0  0  0  0  0  0  0  0
   -1.1482    0.8471   -0.2591 C   0  0  0  0  0  0  0  0  0  0  0  0
    1.6618    0.0270    1.0837 C   0  0  0  0  0  0  0  0  0  0  0  0
   -2.5964    0.9111   -0.2422 C   0  0  0  0  0  0  0  0  0  0  0  0
   -0.7960   -1.1124   -1.0854 H   0  0  0  0  0  0  0  0  0  0  0  0
   -0.9065   -1.1067    0.6694 H   0  0  0  0  0  0  0  0  0  0  0  0
    1.4494   -0.0749   -0.9777 H   0  0  0  0  0  0  0  0  0  0  0  0
   -0.7974    1.3485   -1.1651 H   0  0  0  0  0  0  0  0  0  0  0  0
   -0.8066    1.4412    0.5899 H   0  0  0  0  0  0  0  0  0  0  0  0
    1.1802   -2.3770   -1.0331 H   0  0  0  0  0  0  0  0  0  0  0  0
    2.5439   -1.9605   -0.2229 H   0  0  0  0  0  0  0  0  0  0  0  0
    3.4125   -0.0815    0.5269 H   0  0  0  0  0  0  0  0  0  0  0  0
   -2.6990    2.7447   -0.2142 H   0  0  0  0  0  0  0  0  0  0  0  0
  1  9  1  0  0  0  0
  1 18  1  0  0  0  0
  2 10  1  0  0  0  0
  2 19  1  0  0  0  0
  3  9  2  0  0  0  0
  4 10  2  0  0  0  0
  7  5  1  0  0  0  0
  5 16  1  0  0  0  0
  5 17  1  0  0  0  0
  6  7  1  0  0  0  0
  6  8  1  0  0  0  0
  6 11  1  0  0  0  0
  6 12  1  0  0  0  0
  7  9  1  0  0  0  0
  7 13  1  0  0  0  0
  8 10  1  0  0  0  0
  8 14  1  0  0  0  0
  8 15  1  0  0  0  0
M  END

> <PUBCHEM_BONDANNOTATIONS>
7  5  6

> <StdInChI>
InChI=1S/C5H9NO4/c6-3(5(9)10)1-2-4(7)8/h3H,1-2,6H2,(H,7,8)(H,9,10)/t3-/m0/s1

> <StdInChIKey>
WHUUTDBJXJRKMK-VKHMYHEASA-N

> <AuxInfo>
1/1/N:6,8,7,10,9,5,2,4,1,3/E:(7,8)(9,10)/it:im/rA:19cOOOONCCCCCHHHHHHHHH/rB:;;;;;s5s6;s6;s1d3s7;s2d4s8;s6;s6;s7;s8;s8;s5;s5;s1;s2;/rC:2.8753,.179,1.1733;-3.1643,1.9968,-.2266;1.022,.4179,2.0492;-3.3155,-.0776,-.231;1.5234,-1.9772,-.1572;-.4968,-.5635,-.1868;1.0584,-.5819,-.0911;-1.1482,.8471,-.2591;1.6618,.027,1.0837;-2.5964,.9111,-.2422;-.796,-1.1124,-1.0854;-.9065,-1.1067,.6694;1.4494,-.0749,-.9777;-.7974,1.3485,-1.1651;-.8066,1.4412,.5899;1.1802,-2.377,-1.0331;2.5439,-1.9605,-.2229;3.4125,-.0815,.5269;-2.699,2.7447,-.2142;

> <Formula>
C5 H9 N O4

> <Mw>
147.1293

> <SMILES>
O([H])C([C@]([H])(C([H])([H])C([H])([H])C(=O)O[H])N([H])[H])=O

> <CSID>
30572

$$$$
