@<TRIPOS>MOLECULE
33032
 19 18 0 0 0
SMALL
GASTEIGER

@<TRIPOS>ATOM
      1 O           2.8753    0.1790    1.1733 O.3     1  GLU1       -0.4795
      2 OE1        -3.1643    1.9968   -0.2266 O.3     1  GLU1       -0.4806
      3 OXT         1.0220    0.4179    2.0492 O.2     1  GLU1       -0.2493
      4 OE2        -3.3155   -0.0776   -0.2310 O.2     1  GLU1       -0.2510
      5 N           1.5234   -1.9772   -0.1572 N.3     1  GLU1       -0.3184
      6 CB         -0.4968   -0.5635   -0.1868 C.3     1  GLU1       -0.0173
      7 CA          1.0584   -0.5819   -0.0911 C.3     1  GLU1        0.1037
      8 CG         -1.1482    0.8471   -0.2591 C.3     1  GLU1        0.0467
      9 C           1.6618    0.0270    1.0837 C.2     1  GLU1        0.3217
     10 CD         -2.5964    0.9111   -0.2422 C.2     1  GLU1        0.3048
     11 HB1        -0.7960   -1.1124   -1.0854 H       1  GLU1        0.0291
     12 HB2        -0.9065   -1.1067    0.6694 H       1  GLU1        0.0291
     13 HA          1.4494   -0.0749   -0.9777 H       1  GLU1        0.0574
     14 HG1        -0.7974    1.3485   -1.1651 H       1  GLU1        0.0378
     15 HG2        -0.8066    1.4412    0.5899 H       1  GLU1        0.0378
     16 H1          1.1802   -2.3770   -1.0331 H       1  GLU1        0.1190
     17 H2          2.5439   -1.9605   -0.2229 H       1  GLU1        0.1190
     18 H           3.4125   -0.0815    0.5269 H       1  GLU1        0.2951
     19 HE1        -2.6990    2.7447   -0.2142 H       1  GLU1        0.2951
@<TRIPOS>BOND
     1     1     9    1
     2     1    18    1
     3     2    10    1
     4     2    19    1
     5     3     9    2
     6     4    10    2
     7     7     5    1
     8     5    16    1
     9     5    17    1
    10     6     7    1
    11     6     8    1
    12     6    11    1
    13     6    12    1
    14     7     9    1
    15     7    13    1
    16     8    10    1
    17     8    14    1
    18     8    15    1
