@<TRIPOS>MOLECULE
774
 17 17 0 0 0
SMALL
GASTEIGER

@<TRIPOS>ATOM
      1 N          -1.5060    0.7523    0.5092 N.ar    1  UNL1       -0.3482
      2 N           1.2816   -2.5187   -0.7555 N.3     1  UNL1       -0.3296
      3 N          -0.8622    2.8529    0.4963 N.ar    1  UNL1       -0.2440
      4 C           0.6876   -0.4614    0.4898 C.3     1  UNL1        0.0013
      5 C          -0.1658    0.7399    0.5046 C.ar    1  UNL1        0.0365
      6 C           0.4302   -1.3271   -0.7630 C.3     1  UNL1       -0.0015
      7 C           0.2301    2.0744    0.5004 C.ar    1  UNL1        0.0484
      8 C          -1.9196    2.0265    0.4995 C.ar    1  UNL1        0.0935
      9 H           0.4855   -1.0424    1.3929 H       1  UNL1        0.0340
     10 H           1.7423   -0.1729    0.5144 H       1  UNL1        0.0340
     11 H           0.6404   -0.7573   -1.6716 H       1  UNL1        0.0425
     12 H          -0.6098   -1.6601   -0.7972 H       1  UNL1        0.0425
     13 H          -2.0803   -0.0304    0.5110 H       1  UNL1        0.1665
     14 H           1.1939    2.4133    0.4963 H       1  UNL1        0.0848
     15 H          -2.8963    2.3233    0.4933 H       1  UNL1        0.1027
     16 H           1.0993   -3.0211   -1.6265 H       1  UNL1        0.1182
     17 H           2.2490   -2.1913   -0.7941 H       1  UNL1        0.1182
@<TRIPOS>BOND
     1     1     5   ar
     2     1     8   ar
     3     1    13    1
     4     2     6    1
     5     2    16    1
     6     2    17    1
     7     3     7   ar
     8     3     8   ar
     9     4     5    1
    10     4     6    1
    11     4     9    1
    12     4    10    1
    13     5     7   ar
    14     6    11    1
    15     6    12    1
    16     7    14    1
    17     8    15    1
