@<TRIPOS>MOLECULE
5282105
 73 73 0 0 0
SMALL
GASTEIGER

@<TRIPOS>ATOM
      1 O          -1.3164   -3.1851   -2.5886 O.2     1  UNL1       -0.2758
      2 O           4.6263    2.6329   -4.8305 O.3     1  UNL1       -0.5033
      3 O           3.2536    4.9779   -4.7193 O.3     1  UNL1       -0.5033
      4 N          -0.4083   -1.5250   -3.5476 N.am    1  UNL1       -0.3150
      5 C          -3.6179   -0.4770    1.5767 C.3     1  UNL1       -0.0496
      6 C          -3.5625   -1.9904    1.2334 C.3     1  UNL1       -0.0530
      7 C          -2.8655   -0.1073    2.8806 C.3     1  UNL1       -0.0348
      8 C          -4.1789   -2.3482   -0.1448 C.3     1  UNL1       -0.0559
      9 C           0.4963   -2.6394   -0.2627 C.3     1  UNL1       -0.0414
     10 C          -0.4032   -1.6837   -1.0899 C.3     1  UNL1        0.0242
     11 C           0.2709   -0.3179   -3.6712 C.3     1  UNL1        0.0156
     12 C           0.5226    0.1286   -5.1276 C.3     1  UNL1       -0.0119
     13 C           0.9300   -2.0145    1.0896 C.3     1  UNL1       -0.0343
     14 C          -0.7082   -2.1353   -2.4415 C.2     1  UNL1        0.2130
     15 C           1.2600    1.4179   -5.0948 C.ar    1  UNL1       -0.0422
     16 C          -3.9519   -3.8168   -0.5647 C.3     1  UNL1       -0.0653
     17 C          -2.8955    1.3170    3.1918 C.2     1  UNL1       -0.0876
     18 C           1.8054   -2.8008    1.9434 C.2     1  UNL1       -0.0876
     19 C          -1.8826    2.2028    3.1646 C.2     1  UNL1       -0.0842
     20 C           2.6730    1.4495   -5.0295 C.ar    1  UNL1       -0.0133
     21 C           0.5542    2.6407   -5.0301 C.ar    1  UNL1       -0.0548
     22 C          -0.5119    1.9227    2.7700 C.3     1  UNL1       -0.0165
     23 C           2.2837   -2.4151    3.1414 C.2     1  UNL1       -0.0842
     24 C           2.0135   -1.1679    3.8462 C.3     1  UNL1       -0.0165
     25 C           3.3689    2.6682   -4.8987 C.ar    1  UNL1        0.1585
     26 C           1.2408    3.8609   -4.9015 C.ar    1  UNL1       -0.0163
     27 C           2.6482    3.8804   -4.8364 C.ar    1  UNL1        0.1582
     28 C           0.4935    2.9273    3.0792 C.2     1  UNL1       -0.0839
     29 C           1.8755    1.7746    4.8643 C.3     1  UNL1       -0.0165
     30 C           3.1243   -0.2409    3.9941 C.2     1  UNL1       -0.0839
     31 C           1.5186    2.8526    3.9507 C.2     1  UNL1       -0.0839
     32 C           3.0512    1.0299    4.4325 C.2     1  UNL1       -0.0839
     33 H          -3.1780    0.0923    0.7520 H       1  UNL1        0.0268
     34 H          -4.6661   -0.1776    1.6635 H       1  UNL1        0.0268
     35 H          -4.0813   -2.5551    2.0120 H       1  UNL1        0.0265
     36 H          -2.5223   -2.3224    1.2560 H       1  UNL1        0.0265
     37 H          -3.3108   -0.6454    3.7214 H       1  UNL1        0.0307
     38 H          -1.8503   -0.4944    2.7945 H       1  UNL1        0.0307
     39 H          -3.7569   -1.7072   -0.9233 H       1  UNL1        0.0263
     40 H          -5.2535   -2.1526   -0.1178 H       1  UNL1        0.0263
     41 H           1.3906   -2.8825   -0.8438 H       1  UNL1        0.0273
     42 H          -0.0461   -3.5704   -0.0740 H       1  UNL1        0.0273
     43 H           0.0747   -0.7031   -1.0884 H       1  UNL1        0.0358
     44 H          -1.3450   -1.5176   -0.5756 H       1  UNL1        0.0358
     45 H           1.2393   -0.4148   -3.1682 H       1  UNL1        0.0465
     46 H          -0.3146    0.4572   -3.1640 H       1  UNL1        0.0465
     47 H           1.0876   -0.6420   -5.6600 H       1  UNL1        0.0328
     48 H          -0.4325    0.2277   -5.6524 H       1  UNL1        0.0328
     49 H           1.4463   -1.0735    0.8760 H       1  UNL1        0.0307
     50 H           0.0197   -1.7847    1.6479 H       1  UNL1        0.0307
     51 H          -0.6805   -1.9350   -4.3437 H       1  UNL1        0.1487
     52 H          -4.3819   -3.9961   -1.5521 H       1  UNL1        0.0230
     53 H          -4.4197   -4.4992    0.1462 H       1  UNL1        0.0230
     54 H          -2.8866   -4.0485   -0.6106 H       1  UNL1        0.0230
     55 H          -3.7858    1.6675    3.4679 H       1  UNL1        0.0569
     56 H           2.0795   -3.6985    1.6129 H       1  UNL1        0.0569
     57 H          -2.1024    3.1407    3.4189 H       1  UNL1        0.0572
     58 H           3.2009    0.5729   -5.0581 H       1  UNL1        0.0658
     59 H          -0.4690    2.6499   -5.0571 H       1  UNL1        0.0621
     60 H          -0.4943    1.7467    1.6911 H       1  UNL1        0.0350
     61 H          -0.2337    0.9883    3.2330 H       1  UNL1        0.0350
     62 H           2.8830   -3.0543    3.6136 H       1  UNL1        0.0572
     63 H           1.6213   -1.4154    4.8354 H       1  UNL1        0.0350
     64 H           1.2235   -0.6327    3.3354 H       1  UNL1        0.0350
     65 H           0.7016    4.7292   -4.8482 H       1  UNL1        0.0655
     66 H           0.4155    3.7718    2.5563 H       1  UNL1        0.0572
     67 H           2.1062    2.2243    5.8342 H       1  UNL1        0.0350
     68 H           1.0303    1.1237    5.0895 H       1  UNL1        0.0350
     69 H           4.0322   -0.5759    3.7569 H       1  UNL1        0.0572
     70 H           2.1170    3.6489    3.9866 H       1  UNL1        0.0572
     71 H           3.9114    1.5317    4.4768 H       1  UNL1        0.0572
     72 H           5.1069    3.3658   -4.7383 H       1  UNL1        0.2923
     73 H           2.8162    5.7417   -4.6812 H       1  UNL1        0.2923
@<TRIPOS>BOND
     1     1    14    2
     2     2    25    1
     3     2    72    1
     4     3    27    1
     5     3    73    1
     6     4    11    1
     7     4    14   am
     8     4    51    1
     9     5     6    1
    10     5     7    1
    11     5    33    1
    12     5    34    1
    13     6     8    1
    14     6    35    1
    15     6    36    1
    16     7    17    1
    17     7    37    1
    18     7    38    1
    19     8    16    1
    20     8    39    1
    21     8    40    1
    22     9    10    1
    23     9    13    1
    24     9    41    1
    25     9    42    1
    26    10    14    1
    27    10    43    1
    28    10    44    1
    29    11    12    1
    30    11    45    1
    31    11    46    1
    32    12    15    1
    33    12    47    1
    34    12    48    1
    35    13    18    1
    36    13    49    1
    37    13    50    1
    38    15    20   ar
    39    15    21   ar
    40    16    52    1
    41    16    53    1
    42    16    54    1
    43    17    19    2
    44    17    55    1
    45    18    23    2
    46    18    56    1
    47    19    22    1
    48    19    57    1
    49    20    25   ar
    50    20    58    1
    51    21    26   ar
    52    21    59    1
    53    22    28    1
    54    22    60    1
    55    22    61    1
    56    23    24    1
    57    23    62    1
    58    24    30    1
    59    24    63    1
    60    24    64    1
    61    25    27   ar
    62    26    27   ar
    63    26    65    1
    64    28    31    2
    65    28    66    1
    66    29    31    1
    67    29    32    1
    68    29    67    1
    69    29    68    1
    70    30    32    2
    71    30    69    1
    72    31    70    1
    73    32    71    1
