5311311
  Marvin  12300716493D          

159160  0  0  1  0            999 V2000
    9.5158    2.8512    0.5488 S   0  0  0  0  0  0  0  0  0  0  0  0
   -6.5913   -3.4142   -1.3957 O   0  0  0  0  0  0  0  0  0  0  0  0
   -4.5131   -3.1056    2.1429 O   0  0  0  0  0  0  0  0  0  0  0  0
    7.1583   -1.3941   -2.9266 O   0  0  0  0  0  0  0  0  0  0  0  0
    4.6495   -3.7485   -3.0935 O   0  0  0  0  0  0  0  0  0  0  0  0
    3.1214    4.4374    0.0460 O   0  0  0  0  0  0  0  0  0  0  0  0
   -5.2613   -1.3521   -2.5391 O   0  0  0  0  0  0  0  0  0  0  0  0
    5.6848    1.9052   -1.1526 O   0  0  0  0  0  0  0  0  0  0  0  0
   -3.6723    1.1310    4.8414 O   0  0  0  0  0  0  0  0  0  0  0  0
    2.0271   -2.0962   -1.4227 O   0  0  0  0  0  0  0  0  0  0  0  0
   -1.1353    1.5089   -3.1756 O   0  0  0  0  0  0  0  0  0  0  0  0
   -0.3456   -0.7912   -0.0407 O   0  0  0  0  0  0  0  0  0  0  0  0
    5.0733    6.8746    1.6761 O   0  0  0  0  0  0  0  0  0  0  0  0
   -4.4303    3.3030   -4.2811 O   0  0  0  0  0  0  0  0  0  0  0  0
   -3.2163    1.9226   -5.2570 O   0  0  0  0  0  0  0  0  0  0  0  0
    4.3260   -2.1736   -4.5902 N   0  0  0  0  0  0  0  0  0  0  0  0
   -4.3781   -1.3889    0.8176 N   0  0  0  0  0  0  0  0  0  0  0  0
    3.8251    1.1280   -0.2398 N   0  0  0  0  0  0  0  0  0  0  0  0
   -4.7924    0.0390    3.3127 N   0  0  0  0  0  0  0  0  0  0  0  0
    1.6741   -2.2719   -3.5554 N   0  0  0  0  0  0  0  0  0  0  0  0
    5.1793   -0.8087   -2.1598 N   0  0  0  0  0  0  0  0  0  0  0  0
    4.8898    3.5845    1.1044 N   0  0  0  0  0  0  0  0  0  0  0  0
   -3.3472   -0.6345   -1.8272 N   0  0  0  0  0  0  0  0  0  0  0  0
   -0.6797   -0.5986   -2.8422 N   0  0  0  0  0  0  0  0  0  0  0  0
   -7.0351    1.5348    4.2197 N   0  0  0  0  0  0  0  0  0  0  0  0
   -3.4230   -6.3315    6.9984 N   0  0  0  0  0  0  0  0  0  0  0  0
   -7.7612    4.3025    5.4381 N   0  0  0  0  0  0  0  0  0  0  0  0
    5.1969    6.2288   -0.3596 N   0  0  0  0  0  0  0  0  0  0  0  0
   -7.1168    6.4039    5.4264 N   0  0  0  0  0  0  0  0  0  0  0  0
    5.4187   -1.2909   -4.4725 C   0  0  1  0  0  0  0  0  0  0  0  0
    2.6462    1.6243    1.7558 C   0  0  0  0  0  0  0  0  0  0  0  0
    3.1224    2.1723    0.3726 C   0  0  1  0  0  0  0  0  0  0  0  0
    5.0228    0.1122   -5.0692 C   0  0  2  0  0  0  0  0  0  0  0  0
   -4.0127   -1.1353    3.2493 C   0  0  1  0  0  0  0  0  0  0  0  0
    1.5735    2.4277    2.5546 C   0  0  2  0  0  0  0  0  0  0  0  0
   -4.1911   -1.9356    4.5928 C   0  0  0  0  0  0  0  0  0  0  0  0
   -3.1839   -3.0853    4.8826 C   0  0  0  0  0  0  0  0  0  0  0  0
   -4.7645   -2.0415   -0.3828 C   0  0  1  0  0  0  0  0  0  0  0  0
    2.4579   -3.4237   -3.7894 C   0  0  2  0  0  0  0  0  0  0  0  0
   -4.3152   -1.9008    2.0293 C   0  0  0  0  0  0  0  0  0  0  0  0
    5.9708   -1.1722   -3.1211 C   0  0  0  0  0  0  0  0  0  0  0  0
   -3.7121   -4.1129    5.9187 C   0  0  0  0  0  0  0  0  0  0  0  0
   -6.2440   -2.5792   -0.2903 C   0  0  1  0  0  0  0  0  0  0  0  0
    3.8846   -3.1192   -3.8150 C   0  0  0  0  0  0  0  0  0  0  0  0
    3.7436    3.4808    0.4956 C   0  0  0  0  0  0  0  0  0  0  0  0
    1.9918   -4.1916   -5.0597 C   0  0  0  0  0  0  0  0  0  0  0  0
    4.6056    0.0532   -6.5693 C   0  0  0  0  0  0  0  0  0  0  0  0
    6.1037    1.2226   -4.8981 C   0  0  0  0  0  0  0  0  0  0  0  0
    1.2811    1.7174    3.9054 C   0  0  0  0  0  0  0  0  0  0  0  0
    0.2499    2.6955    1.7867 C   0  0  0  0  0  0  0  0  0  0  0  0
   -2.9918    0.1132   -2.9794 C   0  0  2  0  0  0  0  0  0  0  0  0
   -4.4568   -1.3006   -1.6146 C   0  0  0  0  0  0  0  0  0  0  0  0
    0.6209   -0.4654   -2.3207 C   0  0  2  0  0  0  0  0  0  0  0  0
    5.7648    4.6539    1.3519 C   0  0  1  0  0  0  0  0  0  0  0  0
    5.4864   -0.3828   -0.8746 C   0  0  0  0  0  0  0  0  0  0  0  0
    5.0038    0.9771   -0.7447 C   0  0  0  0  0  0  0  0  0  0  0  0
   -4.6671    1.0571    4.1290 C   0  0  0  0  0  0  0  0  0  0  0  0
   -5.6786    2.1112    4.2083 C   0  0  2  0  0  0  0  0  0  0  0  0
    1.4598   -1.6633   -2.4215 C   0  0  0  0  0  0  0  0  0  0  0  0
   -2.8432   -5.3843    6.0418 C   0  0  0  0  0  0  0  0  0  0  0  0
    0.5541   -4.5837   -5.0458 C   0  0  0  0  0  0  0  0  0  0  0  0
   -1.5510    0.3659   -3.0154 C   0  0  0  0  0  0  0  0  0  0  0  0
   -7.3315   -1.4902   -0.1207 C   0  0  0  0  0  0  0  0  0  0  0  0
    7.1950    4.3174    0.8230 C   0  0  0  0  0  0  0  0  0  0  0  0
   -3.9001    1.3923   -3.0680 C   0  0  0  0  0  0  0  0  0  0  0  0
   -5.5464    3.0907    5.4179 C   0  0  0  0  0  0  0  0  0  0  0  0
    0.4464    0.0568   -0.8644 C   0  0  0  0  0  0  0  0  0  0  0  0
    5.3375    5.9729    0.8905 C   0  0  0  0  0  0  0  0  0  0  0  0
    7.8935    3.0310    1.3373 C   0  0  0  0  0  0  0  0  0  0  0  0
   -0.3373   -4.1325   -6.0460 C   0  0  0  0  0  0  0  0  0  0  0  0
    0.0409   -5.4146   -4.0196 C   0  0  0  0  0  0  0  0  0  0  0  0
   -6.4205    4.2826    5.4113 C   0  0  0  0  0  0  0  0  0  0  0  0
   -3.8374    2.2306   -4.2501 C   0  0  0  0  0  0  0  0  0  0  0  0
   -1.7016   -4.4804   -6.0118 C   0  0  0  0  0  0  0  0  0  0  0  0
   -1.3242   -5.7516   -3.9707 C   0  0  0  0  0  0  0  0  0  0  0  0
   -2.1950   -5.2825   -4.9680 C   0  0  0  0  0  0  0  0  0  0  0  0
   -6.0289    5.6206    5.4057 C   0  0  0  0  0  0  0  0  0  0  0  0
   -8.1740    5.5779    5.4463 C   0  0  0  0  0  0  0  0  0  0  0  0
   10.0794    1.2929    1.2607 C   0  0  0  0  0  0  0  0  0  0  0  0
    6.1893   -1.7057   -5.1305 H   0  0  0  0  0  0  0  0  0  0  0  0
    3.5348    1.5095    2.3847 H   0  0  0  0  0  0  0  0  0  0  0  0
    2.2573    0.6084    1.6450 H   0  0  0  0  0  0  0  0  0  0  0  0
    2.2473    2.2707   -0.2749 H   0  0  0  0  0  0  0  0  0  0  0  0
   -2.9625   -0.8387    3.1618 H   0  0  0  0  0  0  0  0  0  0  0  0
    4.1406    0.4682   -4.5241 H   0  0  0  0  0  0  0  0  0  0  0  0
    2.0034    3.4050    2.7935 H   0  0  0  0  0  0  0  0  0  0  0  0
   -5.2157   -2.3199    4.5994 H   0  0  0  0  0  0  0  0  0  0  0  0
   -4.1343   -1.2839    5.4680 H   0  0  0  0  0  0  0  0  0  0  0  0
   -2.2440   -2.6561    5.2417 H   0  0  0  0  0  0  0  0  0  0  0  0
   -2.9366   -3.6218    3.9666 H   0  0  0  0  0  0  0  0  0  0  0  0
   -4.1185   -2.9222   -0.4671 H   0  0  0  0  0  0  0  0  0  0  0  0
    2.2875   -4.1157   -2.9559 H   0  0  0  0  0  0  0  0  0  0  0  0
    3.7901   -2.0325   -5.3409 H   0  0  0  0  0  0  0  0  0  0  0  0
   -3.7879   -3.6278    6.8960 H   0  0  0  0  0  0  0  0  0  0  0  0
   -4.7186   -4.4310    5.6312 H   0  0  0  0  0  0  0  0  0  0  0  0
   -4.1603   -0.4819    0.7455 H   0  0  0  0  0  0  0  0  0  0  0  0
   -6.3562   -3.2551    0.5583 H   0  0  0  0  0  0  0  0  0  0  0  0
    3.3342    0.3349   -0.2673 H   0  0  0  0  0  0  0  0  0  0  0  0
   -5.5150    0.0818    2.7204 H   0  0  0  0  0  0  0  0  0  0  0  0
    2.5791   -5.1088   -5.1647 H   0  0  0  0  0  0  0  0  0  0  0  0
    2.2250   -3.5838   -5.9394 H   0  0  0  0  0  0  0  0  0  0  0  0
    4.3032    1.0359   -6.9371 H   0  0  0  0  0  0  0  0  0  0  0  0
    5.4319   -0.3015   -7.1885 H   0  0  0  0  0  0  0  0  0  0  0  0
    3.7531   -0.6072   -6.7311 H   0  0  0  0  0  0  0  0  0  0  0  0
    5.7673    2.1764   -5.3099 H   0  0  0  0  0  0  0  0  0  0  0  0
    7.0337    0.9406   -5.3949 H   0  0  0  0  0  0  0  0  0  0  0  0
    6.3267    1.4114   -3.8476 H   0  0  0  0  0  0  0  0  0  0  0  0
    2.1966    1.6015    4.4889 H   0  0  0  0  0  0  0  0  0  0  0  0
    0.5773    2.2900    4.5109 H   0  0  0  0  0  0  0  0  0  0  0  0
    0.8580    0.7235    3.7399 H   0  0  0  0  0  0  0  0  0  0  0  0
   -0.4488    3.2678    2.3995 H   0  0  0  0  0  0  0  0  0  0  0  0
   -0.2401    1.7609    1.5132 H   0  0  0  0  0  0  0  0  0  0  0  0
    0.4190    3.2787    0.8806 H   0  0  0  0  0  0  0  0  0  0  0  0
   -3.1836   -0.5052   -3.8629 H   0  0  0  0  0  0  0  0  0  0  0  0
    1.2666   -1.8932   -4.3081 H   0  0  0  0  0  0  0  0  0  0  0  0
    1.1599    0.3026   -2.8897 H   0  0  0  0  0  0  0  0  0  0  0  0
    5.8365    4.6794    2.4443 H   0  0  0  0  0  0  0  0  0  0  0  0
    4.9735   -1.0669   -0.1907 H   0  0  0  0  0  0  0  0  0  0  0  0
    6.5456   -0.4345   -0.6089 H   0  0  0  0  0  0  0  0  0  0  0  0
    4.2651   -0.8182   -2.3616 H   0  0  0  0  0  0  0  0  0  0  0  0
    5.1983    2.7714    1.4486 H   0  0  0  0  0  0  0  0  0  0  0  0
   -2.7248   -0.6411   -1.1279 H   0  0  0  0  0  0  0  0  0  0  0  0
   -5.5940    2.6906    3.2857 H   0  0  0  0  0  0  0  0  0  0  0  0
   -1.8347   -5.1277    6.3709 H   0  0  0  0  0  0  0  0  0  0  0  0
   -2.7768   -5.8904    5.0762 H   0  0  0  0  0  0  0  0  0  0  0  0
   -0.9814   -1.4703   -2.9934 H   0  0  0  0  0  0  0  0  0  0  0  0
   -7.1183   -0.8546    0.7404 H   0  0  0  0  0  0  0  0  0  0  0  0
   -7.4037   -0.8570   -1.0058 H   0  0  0  0  0  0  0  0  0  0  0  0
   -8.3074   -1.9524    0.0411 H   0  0  0  0  0  0  0  0  0  0  0  0
    7.8545    5.1548    1.0732 H   0  0  0  0  0  0  0  0  0  0  0  0
    7.1523    4.2552   -0.2686 H   0  0  0  0  0  0  0  0  0  0  0  0
   -3.6829    2.0155   -2.1951 H   0  0  0  0  0  0  0  0  0  0  0  0
   -4.9533    1.1150   -2.9897 H   0  0  0  0  0  0  0  0  0  0  0  0
   -5.7410    2.5483    6.3473 H   0  0  0  0  0  0  0  0  0  0  0  0
   -4.5136    3.4451    5.4777 H   0  0  0  0  0  0  0  0  0  0  0  0
    0.0256    1.0633   -0.8413 H   0  0  0  0  0  0  0  0  0  0  0  0
    1.4117    0.1062   -0.3930 H   0  0  0  0  0  0  0  0  0  0  0  0
    8.0263    3.0794    2.4200 H   0  0  0  0  0  0  0  0  0  0  0  0
    7.2980    2.1473    1.1030 H   0  0  0  0  0  0  0  0  0  0  0  0
   -5.9346   -4.1421   -1.3892 H   0  0  0  0  0  0  0  0  0  0  0  0
   -0.0071   -3.5433   -6.8143 H   0  0  0  0  0  0  0  0  0  0  0  0
    0.6502   -5.7836   -3.2865 H   0  0  0  0  0  0  0  0  0  0  0  0
   -7.1149    0.9252    5.0366 H   0  0  0  0  0  0  0  0  0  0  0  0
   -7.1370    0.9462    3.3901 H   0  0  0  0  0  0  0  0  0  0  0  0
   -2.7823   -7.1253    7.0592 H   0  0  0  0  0  0  0  0  0  0  0  0
   -3.4234   -5.8744    7.9125 H   0  0  0  0  0  0  0  0  0  0  0  0
   -2.3324   -4.1491   -6.7442 H   0  0  0  0  0  0  0  0  0  0  0  0
   -1.6793   -6.3365   -3.2108 H   0  0  0  0  0  0  0  0  0  0  0  0
   -8.3403    3.5243    5.4531 H   0  0  0  0  0  0  0  0  0  0  0  0
   -3.1871   -5.5274   -4.9350 H   0  0  0  0  0  0  0  0  0  0  0  0
   -5.0664    5.9625    5.3936 H   0  0  0  0  0  0  0  0  0  0  0  0
   -0.2748   -0.3961    0.8532 H   0  0  0  0  0  0  0  0  0  0  0  0
    5.4032    5.5690   -0.9900 H   0  0  0  0  0  0  0  0  0  0  0  0
    4.8656    7.0528   -0.6487 H   0  0  0  0  0  0  0  0  0  0  0  0
   -9.1488    5.8799    5.4671 H   0  0  0  0  0  0  0  0  0  0  0  0
   -4.8920    3.5808   -3.5838 H   0  0  0  0  0  0  0  0  0  0  0  0
    9.3972    0.4851    0.9962 H   0  0  0  0  0  0  0  0  0  0  0  0
   11.0662    1.0665    0.8561 H   0  0  0  0  0  0  0  0  0  0  0  0
   10.1541    1.3757    2.3448 H   0  0  0  0  0  0  0  0  0  0  0  0
  1 69  1  0  0  0  0
  1 79  1  0  0  0  0
 43  2  1  0  0  0  0
  2140  1  0  0  0  0
  3 40  2  0  0  0  0
  4 41  2  0  0  0  0
  5 44  2  0  0  0  0
  6 45  2  0  0  0  0
  7 52  2  0  0  0  0
  8 56  2  0  0  0  0
  9 57  2  0  0  0  0
 10 59  2  0  0  0  0
 11 62  2  0  0  0  0
 12 67  1  0  0  0  0
 12152  1  0  0  0  0
 13 68  2  0  0  0  0
 14 73  1  0  0  0  0
 14156  1  0  0  0  0
 15 73  2  0  0  0  0
 30 16  1  0  0  0  0
 16 44  1  0  0  0  0
 16 93  1  0  0  0  0
 38 17  1  0  0  0  0
 17 40  1  0  0  0  0
 17 96  1  0  0  0  0
 32 18  1  0  0  0  0
 18 56  1  0  0  0  0
 18 98  1  0  0  0  0
 34 19  1  0  0  0  0
 19 57  1  0  0  0  0
 19 99  1  0  0  0  0
 39 20  1  0  0  0  0
 20 59  1  0  0  0  0
 20115  1  0  0  0  0
 21 41  1  0  0  0  0
 21 55  1  0  0  0  0
 21120  1  0  0  0  0
 22 45  1  0  0  0  0
 54 22  1  0  0  0  0
 22121  1  0  0  0  0
 51 23  1  0  0  0  0
 23 52  1  0  0  0  0
 23122  1  0  0  0  0
 53 24  1  0  0  0  0
 24 62  1  0  0  0  0
 24126  1  0  0  0  0
 58 25  1  0  0  0  0
 25143  1  0  0  0  0
 25144  1  0  0  0  0
 26 60  1  0  0  0  0
 26145  1  0  0  0  0
 26146  1  0  0  0  0
 27 72  1  0  0  0  0
 27 78  1  0  0  0  0
 27149  1  0  0  0  0
 28 68  1  0  0  0  0
 28153  1  0  0  0  0
 28154  1  0  0  0  0
 29 77  1  0  0  0  0
 29 78  2  0  0  0  0
 30 33  1  0  0  0  0
 30 41  1  0  0  0  0
 30 80  1  0  0  0  0
 31 32  1  0  0  0  0
 31 35  1  0  0  0  0
 31 81  1  0  0  0  0
 31 82  1  0  0  0  0
 32 45  1  0  0  0  0
 32 83  1  0  0  0  0
 33 47  1  0  0  0  0
 33 48  1  0  0  0  0
 33 85  1  0  0  0  0
 34 36  1  0  0  0  0
 34 40  1  0  0  0  0
 34 84  1  0  0  0  0
 35 49  1  0  0  0  0
 35 50  1  0  0  0  0
 35 86  1  0  0  0  0
 36 37  1  0  0  0  0
 36 87  1  0  0  0  0
 36 88  1  0  0  0  0
 37 42  1  0  0  0  0
 37 89  1  0  0  0  0
 37 90  1  0  0  0  0
 38 43  1  0  0  0  0
 38 52  1  0  0  0  0
 38 91  1  0  0  0  0
 39 44  1  0  0  0  0
 39 46  1  0  0  0  0
 39 92  1  0  0  0  0
 42 60  1  0  0  0  0
 42 94  1  0  0  0  0
 42 95  1  0  0  0  0
 43 63  1  0  0  0  0
 43 97  1  0  0  0  0
 46 61  1  0  0  0  0
 46100  1  0  0  0  0
 46101  1  0  0  0  0
 47102  1  0  0  0  0
 47103  1  0  0  0  0
 47104  1  0  0  0  0
 48105  1  0  0  0  0
 48106  1  0  0  0  0
 48107  1  0  0  0  0
 49108  1  0  0  0  0
 49109  1  0  0  0  0
 49110  1  0  0  0  0
 50111  1  0  0  0  0
 50112  1  0  0  0  0
 50113  1  0  0  0  0
 51 62  1  0  0  0  0
 51 65  1  0  0  0  0
 51114  1  0  0  0  0
 53 59  1  0  0  0  0
 53 67  1  0  0  0  0
 53116  1  0  0  0  0
 54 64  1  0  0  0  0
 54 68  1  0  0  0  0
 54117  1  0  0  0  0
 55 56  1  0  0  0  0
 55118  1  0  0  0  0
 55119  1  0  0  0  0
 57 58  1  0  0  0  0
 58 66  1  0  0  0  0
 58123  1  0  0  0  0
 60124  1  0  0  0  0
 60125  1  0  0  0  0
 61 70  2  0  0  0  0
 61 71  1  0  0  0  0
 63127  1  0  0  0  0
 63128  1  0  0  0  0
 63129  1  0  0  0  0
 64 69  1  0  0  0  0
 64130  1  0  0  0  0
 64131  1  0  0  0  0
 65 73  1  0  0  0  0
 65132  1  0  0  0  0
 65133  1  0  0  0  0
 66 72  1  0  0  0  0
 66134  1  0  0  0  0
 66135  1  0  0  0  0
 67136  1  0  0  0  0
 67137  1  0  0  0  0
 69138  1  0  0  0  0
 69139  1  0  0  0  0
 70 74  1  0  0  0  0
 70141  1  0  0  0  0
 71 75  2  0  0  0  0
 71142  1  0  0  0  0
 72 77  2  0  0  0  0
 74 76  2  0  0  0  0
 74147  1  0  0  0  0
 75 76  1  0  0  0  0
 75148  1  0  0  0  0
 76150  1  0  0  0  0
 77151  1  0  0  0  0
 78155  1  0  0  0  0
 79157  1  0  0  0  0
 79158  1  0  0  0  0
 79159  1  0  0  0  0
M  END

> <PUBCHEM_BONDANNOTATIONS>
30  16  6
38  17  6
32  18  6
34  19  5
43  2  5
39  20  5
54  22  6
51  23  6
53  24  5
58  25  5
27  72  8
27  78  8
29  77  8
29  78  8
61  70  8
61  71  8
70  74  8
71  75  8
72  77  8
74  76  8
75  76  8

> <StdInChI>
InChI=1S/C50H80N14O14S/c1-26(2)18-34(45(73)58-32(42(53)70)15-17-79-6)57-38(67)23-55-49(77)40(27(3)4)63-47(75)35(19-29-12-8-7-9-13-29)60-48(76)37(24-65)62-46(74)36(21-39(68)69)61-50(78)41(28(5)66)64-44(72)33(14-10-11-16-51)59-43(71)31(52)20-30-22-54-25-56-30/h7-9,12-13,22,25-28,31-37,40-41,65-66H,10-11,14-21,23-24,51-52H2,1-6H3,(H2,53,70)(H,54,56)(H,55,77)(H,57,67)(H,58,73)(H,59,71)(H,60,76)(H,61,78)(H,62,74)(H,63,75)(H,64,72)(H,68,69)/t28-,31+,32+,33+,34+,35+,36+,37+,40+,41+/m1/s1

> <StdInChIKey>
HEAUFJZALFKPBA-JPQUDPSNSA-N

> <AuxInfo>
1/1/N:49,50,47,48,63,79,76,74,75,37,42,70,71,36,64,60,69,31,46,66,65,77,55,67,78,35,33,43,61,72,58,54,34,32,39,51,53,56,73,30,38,68,57,40,45,62,44,59,41,52,26,25,28,29,21,27,18,22,19,20,23,24,16,17,12,2,8,14,15,13,9,3,6,11,5,10,4,7,1/E:(1,2)(3,4)(8,9)(12,13)(68,69)/it:im/rA:159cSOOOOOOOOOOOOOONNNNNNNNNNNNNNCCCCCCCCCCCCCCCCCCCCCCCCCCCCCCCCCCCCCCCCCCCCCCCCCCHHHHHHHHHHHHHHHHHHHHHHHHHHHHHHHHHHHHHHHHHHHHHHHHHHHHHHHHHHHHHHHHHHHHHHHHHHHHHHHH/rB:;;;;;;;;;;;;;;;;;;;;;;;;;;;;s16;;s18s31;s30;s19;s31;s34;s36;s17;s20;d3s17s34;d4s21s30;s37;s2s38;d5s16s39;d6s22s32;s39;s33;s33;s35;s35;s23;d7s23s38;s24;s22;s21;d8s18s55;d9s19;s25s57;d10s20s53;s26s42;s46;d11s24s51;s43;s54;s51;s58;s12s53;d13s28s54;s1s64;d61;s61;s27s66;s14d15s65;s70;d71;d74s75;s29d72;s27d29;s1;s30;s31;s31;s32;s34;s33;s35;s36;s36;s37;s37;s38;s39;s16;s42;s42;s17;s43;s18;s19;s46;s46;s47;s47;s47;s48;s48;s48;s49;s49;s49;s50;s50;s50;s51;s20;s53;s54;s55;s55;s21;s22;s23;s58;s60;s60;s24;s63;s63;s63;s64;s64;s65;s65;s66;s66;s67;s67;s69;s69;s2;s70;s71;s25;s25;s26;s26;s74;s75;s27;s76;s77;s12;s28;s28;s78;s14;s79;s79;s79;/rC:9.5158,2.8512,.5488;-6.5913,-3.4142,-1.3957;-4.5131,-3.1056,2.1429;7.1583,-1.3941,-2.9266;4.6495,-3.7485,-3.0935;3.1214,4.4374,.046;-5.2613,-1.3521,-2.5391;5.6848,1.9052,-1.1526;-3.6723,1.131,4.8414;2.0271,-2.0962,-1.4227;-1.1353,1.5089,-3.1756;-.3456,-.7912,-.0407;5.0733,6.8746,1.6761;-4.4303,3.303,-4.2811;-3.2163,1.9226,-5.257;4.326,-2.1736,-4.5902;-4.3781,-1.3889,.8176;3.8251,1.128,-.2398;-4.7924,.039,3.3127;1.6741,-2.2719,-3.5554;5.1793,-.8087,-2.1598;4.8898,3.5845,1.1044;-3.3472,-.6345,-1.8272;-.6797,-.5986,-2.8422;-7.0351,1.5348,4.2197;-3.423,-6.3315,6.9984;-7.7612,4.3025,5.4381;5.1969,6.2288,-.3596;-7.1168,6.4039,5.4264;5.4187,-1.2909,-4.4725;2.6462,1.6243,1.7558;3.1224,2.1723,.3726;5.0228,.1122,-5.0692;-4.0127,-1.1353,3.2493;1.5735,2.4277,2.5546;-4.1911,-1.9356,4.5928;-3.1839,-3.0853,4.8826;-4.7645,-2.0415,-.3828;2.4579,-3.4237,-3.7894;-4.3152,-1.9008,2.0293;5.9708,-1.1722,-3.1211;-3.7121,-4.1129,5.9187;-6.244,-2.5792,-.2903;3.8846,-3.1192,-3.815;3.7436,3.4808,.4956;1.9918,-4.1916,-5.0597;4.6056,.0532,-6.5693;6.1037,1.2226,-4.8981;1.2811,1.7174,3.9054;.2499,2.6955,1.7867;-2.9918,.1132,-2.9794;-4.4568,-1.3006,-1.6146;.6209,-.4654,-2.3207;5.7648,4.6539,1.3519;5.4864,-.3828,-.8746;5.0038,.9771,-.7447;-4.6671,1.0571,4.129;-5.6786,2.1112,4.2083;1.4598,-1.6633,-2.4215;-2.8432,-5.3843,6.0418;.5541,-4.5837,-5.0458;-1.551,.3659,-3.0154;-7.3315,-1.4902,-.1207;7.195,4.3174,.823;-3.9001,1.3923,-3.068;-5.5464,3.0907,5.4179;.4464,.0568,-.8644;5.3375,5.9729,.8905;7.8935,3.031,1.3373;-.3373,-4.1325,-6.046;.0409,-5.4146,-4.0196;-6.4205,4.2826,5.4113;-3.8374,2.2306,-4.2501;-1.7016,-4.4804,-6.0118;-1.3242,-5.7516,-3.9707;-2.195,-5.2825,-4.968;-6.0289,5.6206,5.4057;-8.174,5.5779,5.4463;10.0794,1.2929,1.2607;6.1893,-1.7057,-5.1305;3.5348,1.5095,2.3847;2.2573,.6084,1.645;2.2473,2.2707,-.2749;-2.9625,-.8387,3.1618;4.1406,.4682,-4.5241;2.0034,3.405,2.7935;-5.2157,-2.3199,4.5994;-4.1343,-1.2839,5.468;-2.244,-2.6561,5.2417;-2.9366,-3.6218,3.9666;-4.1185,-2.9222,-.4671;2.2875,-4.1157,-2.9559;3.7901,-2.0325,-5.3409;-3.7879,-3.6278,6.896;-4.7186,-4.431,5.6312;-4.1603,-.4819,.7455;-6.3562,-3.2551,.5583;3.3342,.3349,-.2673;-5.515,.0818,2.7204;2.5791,-5.1088,-5.1647;2.225,-3.5838,-5.9394;4.3032,1.0359,-6.9371;5.4319,-.3015,-7.1885;3.7531,-.6072,-6.7311;5.7673,2.1764,-5.3099;7.0337,.9406,-5.3949;6.3267,1.4114,-3.8476;2.1966,1.6015,4.4889;.5773,2.29,4.5109;.858,.7235,3.7399;-.4488,3.2678,2.3995;-.2401,1.7609,1.5132;.419,3.2787,.8806;-3.1836,-.5052,-3.8629;1.2666,-1.8932,-4.3081;1.1599,.3026,-2.8897;5.8365,4.6794,2.4443;4.9735,-1.0669,-.1907;6.5456,-.4345,-.6089;4.2651,-.8182,-2.3616;5.1983,2.7714,1.4486;-2.7248,-.6411,-1.1279;-5.594,2.6906,3.2857;-1.8347,-5.1277,6.3709;-2.7768,-5.8904,5.0762;-.9814,-1.4703,-2.9934;-7.1183,-.8546,.7404;-7.4037,-.857,-1.0058;-8.3074,-1.9524,.0411;7.8545,5.1548,1.0732;7.1523,4.2552,-.2686;-3.6829,2.0155,-2.1951;-4.9533,1.115,-2.9897;-5.741,2.5483,6.3473;-4.5136,3.4451,5.4777;.0256,1.0633,-.8413;1.4117,.1062,-.393;8.0263,3.0794,2.42;7.298,2.1473,1.103;-5.9346,-4.1421,-1.3892;-.0071,-3.5433,-6.8143;.6502,-5.7836,-3.2865;-7.1149,.9252,5.0366;-7.137,.9462,3.3901;-2.7823,-7.1253,7.0592;-3.4234,-5.8744,7.9125;-2.3324,-4.1491,-6.7442;-1.6793,-6.3365,-3.2108;-8.3403,3.5243,5.4531;-3.1871,-5.5274,-4.935;-5.0664,5.9625,5.3936;-.2748,-.3961,.8532;5.4032,5.569,-.99;4.8656,7.0528,-.6487;-9.1488,5.8799,5.4671;-4.892,3.5808,-3.5838;9.3972,.4851,.9962;11.0662,1.0665,.8561;10.1541,1.3757,2.3448;

> <Formula>
C50 H80 N14 O14 S

> <Mw>
1133.321

> <SMILES>
S(C([H])([H])[H])C([H])([H])C([H])([H])[C@@]([H])(C(N([H])[H])=O)N([H])C([C@]([H])(C([H])([H])C([H])(C([H])([H])[H])C([H])([H])[H])N([H])C(C([H])([H])N([H])C([C@]([H])(C([H])(C([H])([H])[H])C([H])([H])[H])N([H])C([C@]([H])(C([H])([H])C1C([H])=C([H])C([H])=C([H])C=1[H])N([H])C([C@]([H])(C([H])([H])O[H])N([H])C([C@]([H])(C([H])([H])C(=O)O[H])N([H])C([C@]([H])([C@@]([H])(C([H])([H])[H])O[H])N([H])C([C@]([H])(C([H])([H])C([H])([H])C([H])([H])C([H])([H])N([H])[H])N([H])C([C@]([H])(C([H])([H])C1=C([H])N=C([H])N1[H])N([H])[H])=O)=O)=O)=O)=O)=O)=O)=O)=O

> <CSID>
4470818

$$$$
