@<TRIPOS>MOLECULE
5311311
 159 160 0 0 0
SMALL
GASTEIGER

@<TRIPOS>ATOM
      1 S           9.5158    2.8512    0.5488 S.3     5  UNK5       -0.1641
      2 OG1        -6.5913   -3.4142   -1.3957 O.3     3  THR3       -0.3897
      3 O          -4.5131   -3.1056    2.1429 O.2     2  LYS2       -0.2738
      4 O           7.1583   -1.3941   -2.9266 O.2     5  UNK5       -0.2738
      5 O           4.6495   -3.7485   -3.0935 O.2     5  UNK5       -0.2738
      6 O           3.1214    4.4374    0.0460 O.2     5  UNK5       -0.2738
      7 O          -5.2613   -1.3521   -2.5391 O.2     3  THR3       -0.2737
      8 O           5.6848    1.9052   -1.1526 O.2     5  UNK5       -0.2741
      9 O          -3.6723    1.1310    4.8414 O.2     1  HIS1       -0.2741
     10 O           2.0271   -2.0962   -1.4227 O.2     5  UNK5       -0.2737
     11 O          -1.1353    1.5089   -3.1756 O.2     4  ASP4       -0.2737
     12 O          -0.3456   -0.7912   -0.0407 O.3     5  UNK5       -0.3927
     13 O           5.0733    6.8746    1.6761 O.2     5  UNK5       -0.2740
     14 OD1        -4.4303    3.3030   -4.2811 O.3     4  ASP4       -0.4806
     15 OD2        -3.2163    1.9226   -5.2570 O.2     4  ASP4       -0.2509
     16 N           4.3260   -2.1736   -4.5902 N.am    5  UNK5       -0.3022
     17 N          -4.3781   -1.3889    0.8176 N.am    3  THR3       -0.3003
     18 N           3.8251    1.1280   -0.2398 N.am    5  UNK5       -0.3027
     19 N          -4.7924    0.0390    3.3127 N.am    2  LYS2       -0.3027
     20 N           1.6741   -2.2719   -3.5554 N.am    5  UNK5       -0.3021
     21 N           5.1793   -0.8087   -2.1598 N.am    5  UNK5       -0.3052
     22 N           4.8898    3.5845    1.1044 N.am    5  UNK5       -0.3025
     23 N          -3.3472   -0.6345   -1.8272 N.am    4  ASP4       -0.3019
     24 N          -0.6797   -0.5986   -2.8422 N.am    5  UNK5       -0.3006
     25 N          -7.0351    1.5348    4.2197 N.3     1  HIS1       -0.3196
     26 NZ         -3.4230   -6.3315    6.9984 N.3     2  LYS2       -0.3300
     27 ND1        -7.7612    4.3025    5.4381 N.ar    1  HIS1       -0.3481
     28 N           5.1969    6.2288   -0.3596 N.am    5  UNK5       -0.3278
     29 NE2        -7.1168    6.4039    5.4264 N.ar    1  HIS1       -0.2440
     30 C           5.4187   -1.2909   -4.4725 C.3     5  UNK5        0.1017
     31 C           2.6462    1.6243    1.7558 C.3     5  UNK5       -0.0236
     32 C           3.1224    2.1723    0.3726 C.3     5  UNK5        0.0996
     33 C           5.0228    0.1122   -5.0692 C.3     5  UNK5       -0.0197
     34 CA         -4.0127   -1.1353    3.2493 C.3     2  LYS2        0.0994
     35 C           1.5735    2.4277    2.5546 C.3     5  UNK5       -0.0446
     36 CB         -4.1911   -1.9356    4.5928 C.3     2  LYS2       -0.0259
     37 CG         -3.1839   -3.0853    4.8826 C.3     2  LYS2       -0.0498
     38 CA         -4.7645   -2.0415   -0.3828 C.3     3  THR3        0.1252
     39 C           2.4579   -3.4237   -3.7894 C.3     5  UNK5        0.1034
     40 C          -4.3152   -1.9008    2.0293 C.2     2  LYS2        0.2340
     41 C           5.9708   -1.1722   -3.1211 C.2     5  UNK5        0.2340
     42 CD         -3.7121   -4.1129    5.9187 C.3     2  LYS2       -0.0406
     43 CB         -6.2440   -2.5792   -0.2903 C.3     3  THR3        0.0792
     44 C           3.8846   -3.1192   -3.8150 C.2     5  UNK5        0.2343
     45 C           3.7436    3.4808    0.4956 C.2     5  UNK5        0.2340
     46 C           1.9918   -4.1916   -5.0597 C.3     5  UNK5       -0.0007
     47 C           4.6056    0.0532   -6.5693 C.3     5  UNK5       -0.0605
     48 C           6.1037    1.2226   -4.8981 C.3     5  UNK5       -0.0605
     49 C           1.2811    1.7174    3.9054 C.3     5  UNK5       -0.0626
     50 C           0.2499    2.6955    1.7867 C.3     5  UNK5       -0.0626
     51 CA         -2.9918    0.1132   -2.9794 C.3     4  ASP4        0.1094
     52 C          -4.4568   -1.3006   -1.6146 C.2     3  THR3        0.2365
     53 C           0.6209   -0.4654   -2.3207 C.3     5  UNK5        0.1226
     54 C           5.7648    4.6539    1.3519 C.3     5  UNK5        0.0999
     55 C           5.4864   -0.3828   -0.8746 C.3     5  UNK5        0.0882
     56 C           5.0038    0.9771   -0.7447 C.2     5  UNK5        0.2308
     57 C          -4.6671    1.0571    4.1290 C.2     1  HIS1        0.2308
     58 CA         -5.6786    2.1112    4.2083 C.3     1  HIS1        0.0877
     59 C           1.4598   -1.6633   -2.4215 C.2     5  UNK5        0.2362
     60 CE         -2.8432   -5.3843    6.0418 C.3     2  LYS2       -0.0069
     61 C           0.5541   -4.5837   -5.0458 C.ar    5  UNK5       -0.0451
     62 C          -1.5510    0.3659   -3.0154 C.2     4  ASP4        0.2345
     63 CG2        -7.3315   -1.4902   -0.1207 C.3     3  THR3       -0.0367
     64 C           7.1950    4.3174    0.8230 C.3     5  UNK5       -0.0170
     65 CB         -3.9001    1.3923   -3.0680 C.3     4  ASP4        0.0716
     66 CB         -5.5464    3.0907    5.4179 C.3     1  HIS1        0.0127
     67 C           0.4464    0.0568   -0.8644 C.3     5  UNK5        0.0711
     68 C           5.3375    5.9729    0.8905 C.2     5  UNK5        0.2308
     69 C           7.8935    3.0310    1.3373 C.3     5  UNK5       -0.0044
     70 C          -0.3373   -4.1325   -6.0460 C.ar    5  UNK5       -0.0585
     71 C           0.0409   -5.4146   -4.0196 C.ar    5  UNK5       -0.0585
     72 CG         -6.4205    4.2826    5.4113 C.ar    1  HIS1        0.0373
     73 CG         -3.8374    2.2306   -4.2501 C.2     4  ASP4        0.3070
     74 C          -1.7016   -4.4804   -6.0118 C.ar    5  UNK5       -0.0615
     75 C          -1.3242   -5.7516   -3.9707 C.ar    5  UNK5       -0.0615
     76 C          -2.1950   -5.2825   -4.9680 C.ar    5  UNK5       -0.0617
     77 CD2        -6.0289    5.6206    5.4057 C.ar    1  HIS1        0.0485
     78 CE1        -8.1740    5.5779    5.4463 C.ar    1  HIS1        0.0935
     79 C          10.0794    1.2929    1.2607 C.3     5  UNK5       -0.0181
     80 H           6.1893   -1.7057   -5.1305 H       5  UNK5        0.0597
     81 H           3.5348    1.5095    2.3847 H       5  UNK5        0.0290
     82 H           2.2573    0.6084    1.6450 H       5  UNK5        0.0290
     83 H           2.2473    2.2707   -0.2749 H       5  UNK5        0.0594
     84 HA         -2.9625   -0.8387    3.1618 H       2  LYS2        0.0594
     85 H           4.1406    0.4682   -4.5241 H       5  UNK5        0.0318
     86 H           2.0034    3.4050    2.7935 H       5  UNK5        0.0296
     87 HB1        -5.2157   -2.3199    4.5994 H       2  LYS2        0.0288
     88 HB2        -4.1343   -1.2839    5.4680 H       2  LYS2        0.0288
     89 HG1        -2.2440   -2.6561    5.2417 H       2  LYS2        0.0266
     90 HG2        -2.9366   -3.6218    3.9666 H       2  LYS2        0.0266
     91 HA         -4.1185   -2.9222   -0.4671 H       3  THR3        0.0621
     92 H           2.2875   -4.1157   -2.9559 H       5  UNK5        0.0598
     93 H           3.7901   -2.0325   -5.3409 H       5  UNK5        0.1495
     94 HD1        -3.7879   -3.6278    6.8960 H       2  LYS2        0.0277
     95 HD2        -4.7186   -4.4310    5.6312 H       2  LYS2        0.0277
     96 H          -4.1603   -0.4819    0.7455 H       3  THR3        0.1496
     97 HB         -6.3562   -3.2551    0.5583 H       3  THR3        0.0614
     98 H           3.3342    0.3349   -0.2673 H       5  UNK5        0.1495
     99 H          -5.5150    0.0818    2.7204 H       2  LYS2        0.1495
    100 H           2.5791   -5.1088   -5.1647 H       5  UNK5        0.0336
    101 H           2.2250   -3.5838   -5.9394 H       5  UNK5        0.0336
    102 H           4.3032    1.0359   -6.9371 H       5  UNK5        0.0233
    103 H           5.4319   -0.3015   -7.1885 H       5  UNK5        0.0233
    104 H           3.7531   -0.6072   -6.7311 H       5  UNK5        0.0233
    105 H           5.7673    2.1764   -5.3099 H       5  UNK5        0.0233
    106 H           7.0337    0.9406   -5.3949 H       5  UNK5        0.0233
    107 H           6.3267    1.4114   -3.8476 H       5  UNK5        0.0233
    108 H           2.1966    1.6015    4.4889 H       5  UNK5        0.0232
    109 H           0.5773    2.2900    4.5109 H       5  UNK5        0.0232
    110 H           0.8580    0.7235    3.7399 H       5  UNK5        0.0232
    111 H          -0.4488    3.2678    2.3995 H       5  UNK5        0.0232
    112 H          -0.2401    1.7609    1.5132 H       5  UNK5        0.0232
    113 H           0.4190    3.2787    0.8806 H       5  UNK5        0.0232
    114 HA         -3.1836   -0.5052   -3.8629 H       4  ASP4        0.0600
    115 H           1.2666   -1.8932   -4.3081 H       5  UNK5        0.1495
    116 H           1.1599    0.3026   -2.8897 H       5  UNK5        0.0618
    117 H           5.8365    4.6794    2.4443 H       5  UNK5        0.0595
    118 H           4.9735   -1.0669   -0.1907 H       5  UNK5        0.0558
    119 H           6.5456   -0.4345   -0.6089 H       5  UNK5        0.0558
    120 H           4.2651   -0.8182   -2.3616 H       5  UNK5        0.1492
    121 H           5.1983    2.7714    1.4486 H       5  UNK5        0.1495
    122 H          -2.7248   -0.6411   -1.1279 H       4  ASP4        0.1495
    123 HA         -5.5940    2.6906    3.2857 H       1  HIS1        0.0558
    124 HE1        -1.8347   -5.1277    6.3709 H       2  LYS2        0.0422
    125 HE2        -2.7768   -5.8904    5.0762 H       2  LYS2        0.0422
    126 H          -0.9814   -1.4703   -2.9934 H       5  UNK5        0.1496
    127 HG21       -7.1183   -0.8546    0.7404 H       3  THR3        0.0255
    128 HG22       -7.4037   -0.8570   -1.0058 H       3  THR3        0.0255
    129 HG23       -8.3074   -1.9524    0.0411 H       3  THR3        0.0255
    130 H           7.8545    5.1548    1.0732 H       5  UNK5        0.0296
    131 H           7.1523    4.2552   -0.2686 H       5  UNK5        0.0296
    132 HB1        -3.6829    2.0155   -2.1951 H       4  ASP4        0.0401
    133 HB2        -4.9533    1.1150   -2.9897 H       4  ASP4        0.0401
    134 HB1        -5.7410    2.5483    6.3473 H       1  HIS1        0.0348
    135 HB2        -4.5136    3.4451    5.4777 H       1  HIS1        0.0348
    136 H           0.0256    1.0633   -0.8413 H       5  UNK5        0.0580
    137 H           1.4117    0.1062   -0.3930 H       5  UNK5        0.0580
    138 H           8.0263    3.0794    2.4200 H       5  UNK5        0.0377
    139 H           7.2980    2.1473    1.1030 H       5  UNK5        0.0377
    140 HG1        -5.9346   -4.1421   -1.3892 H       3  THR3        0.2099
    141 H          -0.0071   -3.5433   -6.8143 H       5  UNK5        0.0620
    142 H           0.6502   -5.7836   -3.2865 H       5  UNK5        0.0620
    143 H1         -7.1149    0.9252    5.0366 H       1  HIS1        0.1189
    144 H2         -7.1370    0.9462    3.3901 H       1  HIS1        0.1189
    145 HZ1        -2.7823   -7.1253    7.0592 H       2  LYS2        0.1182
    146 HZ2        -3.4234   -5.8744    7.9125 H       2  LYS2        0.1182
    147 H          -2.3324   -4.1491   -6.7442 H       5  UNK5        0.0618
    148 H          -1.6793   -6.3365   -3.2108 H       5  UNK5        0.0618
    149 HD1        -8.3403    3.5243    5.4531 H       1  HIS1        0.1665
    150 H          -3.1871   -5.5274   -4.9350 H       5  UNK5        0.0618
    151 HD2        -5.0664    5.9625    5.3936 H       1  HIS1        0.0848
    152 H          -0.2748   -0.3961    0.8532 H       5  UNK5        0.2095
    153 H           5.4032    5.5690   -0.9900 H       5  UNK5        0.1450
    154 H           4.8656    7.0528   -0.6487 H       5  UNK5        0.1450
    155 HE1        -9.1488    5.8799    5.4671 H       1  HIS1        0.1027
    156 HD1        -4.8920    3.5808   -3.5838 H       4  ASP4        0.2951
    157 H           9.3972    0.4851    0.9962 H       5  UNK5        0.0340
    158 H          11.0662    1.0665    0.8561 H       5  UNK5        0.0340
    159 H          10.1541    1.3757    2.3448 H       5  UNK5        0.0340
@<TRIPOS>BOND
     1     1    69    1
     2     1    79    1
     3    43     2    1
     4     2   140    1
     5     3    40    2
     6     4    41    2
     7     5    44    2
     8     6    45    2
     9     7    52    2
    10     8    56    2
    11     9    57    2
    12    10    59    2
    13    11    62    2
    14    12    67    1
    15    12   152    1
    16    13    68    2
    17    14    73    1
    18    14   156    1
    19    15    73    2
    20    30    16    1
    21    16    44   am
    22    16    93    1
    23    38    17    1
    24    17    40   am
    25    17    96    1
    26    32    18    1
    27    18    56   am
    28    18    98    1
    29    34    19    1
    30    19    57   am
    31    19    99    1
    32    39    20    1
    33    20    59   am
    34    20   115    1
    35    21    41   am
    36    21    55    1
    37    21   120    1
    38    22    45   am
    39    54    22    1
    40    22   121    1
    41    51    23    1
    42    23    52   am
    43    23   122    1
    44    53    24    1
    45    24    62   am
    46    24   126    1
    47    58    25    1
    48    25   143    1
    49    25   144    1
    50    26    60    1
    51    26   145    1
    52    26   146    1
    53    27    72   ar
    54    27    78   ar
    55    27   149    1
    56    28    68   am
    57    28   153    1
    58    28   154    1
    59    29    77   ar
    60    29    78   ar
    61    30    33    1
    62    30    41    1
    63    30    80    1
    64    31    32    1
    65    31    35    1
    66    31    81    1
    67    31    82    1
    68    32    45    1
    69    32    83    1
    70    33    47    1
    71    33    48    1
    72    33    85    1
    73    34    36    1
    74    34    40    1
    75    34    84    1
    76    35    49    1
    77    35    50    1
    78    35    86    1
    79    36    37    1
    80    36    87    1
    81    36    88    1
    82    37    42    1
    83    37    89    1
    84    37    90    1
    85    38    43    1
    86    38    52    1
    87    38    91    1
    88    39    44    1
    89    39    46    1
    90    39    92    1
    91    42    60    1
    92    42    94    1
    93    42    95    1
    94    43    63    1
    95    43    97    1
    96    46    61    1
    97    46   100    1
    98    46   101    1
    99    47   102    1
   100    47   103    1
   101    47   104    1
   102    48   105    1
   103    48   106    1
   104    48   107    1
   105    49   108    1
   106    49   109    1
   107    49   110    1
   108    50   111    1
   109    50   112    1
   110    50   113    1
   111    51    62    1
   112    51    65    1
   113    51   114    1
   114    53    59    1
   115    53    67    1
   116    53   116    1
   117    54    64    1
   118    54    68    1
   119    54   117    1
   120    55    56    1
   121    55   118    1
   122    55   119    1
   123    57    58    1
   124    58    66    1
   125    58   123    1
   126    60   124    1
   127    60   125    1
   128    61    70   ar
   129    61    71   ar
   130    63   127    1
   131    63   128    1
   132    63   129    1
   133    64    69    1
   134    64   130    1
   135    64   131    1
   136    65    73    1
   137    65   132    1
   138    65   133    1
   139    66    72    1
   140    66   134    1
   141    66   135    1
   142    67   136    1
   143    67   137    1
   144    69   138    1
   145    69   139    1
   146    70    74   ar
   147    70   141    1
   148    71    75   ar
   149    71   142    1
   150    72    77   ar
   151    74    76   ar
   152    74   147    1
   153    75    76   ar
   154    75   148    1
   155    76   150    1
   156    77   151    1
   157    78   155    1
   158    79   157    1
   159    79   158    1
   160    79   159    1
