@<TRIPOS>MOLECULE
5311312
 163 165 0 0 0
SMALL
GASTEIGER

@<TRIPOS>ATOM
      1 S          -1.6901  -10.8692   -5.8443 S.3     1  UNL1       -0.1641
      2 S          -4.0113    7.7397    2.2202 S.3     1  UNL1       -0.1641
      3 O          -3.1942   -1.0637    2.1109 O.2     1  UNL1       -0.2738
      4 O          -1.2595   -4.6736    2.7919 O.2     1  UNL1       -0.2738
      5 O           1.7982   -8.1743   -2.8177 O.2     1  UNL1       -0.2738
      6 O          -0.6991    2.6285    1.5069 O.2     1  UNL1       -0.2738
      7 O           2.8974   -5.8992    0.2180 O.2     1  UNL1       -0.2741
      8 O           3.8857    2.8960    0.8638 O.2     1  UNL1       -0.2737
      9 O           2.6232    5.4643   -3.3702 O.2     1  UNL1       -0.2738
     10 O           1.2615    8.6611    0.8144 O.2     1  UNL1       -0.2738
     11 O          -1.4307   -5.2400   -4.4187 O.2     1  UNL1       -0.2740
     12 O           5.6276    2.4520   -2.4345 O.3     1  UNL1       -0.4806
     13 O           6.5737    3.0294   -0.6692 O.2     1  UNL1       -0.2509
     14 O           0.3759    7.3626    3.3366 O.2     1  UNL1       -0.2741
     15 O          -0.9770    3.5459    5.6125 O.3     1  UNL1       -0.4806
     16 O          -1.2196    4.1858    3.6697 O.2     1  UNL1       -0.2509
     17 N          -1.6242   -2.0121    0.9088 N.am    1  UNL1       -0.3022
     18 N          -0.7339    0.6029    0.6652 N.am    1  UNL1       -0.3022
     19 N           0.8981   -6.7869    0.0222 N.am    1  UNL1       -0.3027
     20 N           1.7893    2.6190    0.3132 N.am    1  UNL1       -0.3022
     21 N           0.3241   -4.2074    1.3531 N.am    1  UNL1       -0.3052
     22 N          -0.3197   -7.7458   -2.4831 N.am    1  UNL1       -0.3025
     23 N           2.3877    5.0070   -1.2406 N.am    1  UNL1       -0.3019
     24 N           1.5497    7.6731   -1.0142 N.am    1  UNL1       -0.3021
     25 N           0.2262    6.0788    1.5328 N.am    1  UNL1       -0.3027
     26 N          -0.7333    9.2045   -3.2924 N.ar    1  UNL1       -0.3481
     27 N          -2.6457   -6.2242   -2.9485 N.am    1  UNL1       -0.3278
     28 N          -0.1001   11.3078   -3.2071 N.ar    1  UNL1       -0.2440
     29 N           2.7755    5.8970    3.6972 N.3     1  UNL1       -0.3195
     30 C          -1.9112   -3.3825    0.9810 C.3     1  UNL1        0.1017
     31 C          -2.0932   -3.9133   -0.4854 C.3     1  UNL1       -0.0197
     32 C           0.4270   -9.1469    0.1851 C.3     1  UNL1       -0.0236
     33 C           1.1704   -8.0197   -0.5983 C.3     1  UNL1        0.0996
     34 C           0.7495   -9.2688    1.7127 C.3     1  UNL1       -0.0446
     35 C          -2.1003    0.3187    0.5925 C.3     1  UNL1        0.1034
     36 C           1.3553    1.5995    1.1949 C.3     1  UNL1        0.1034
     37 C          -2.3298   -0.9701    1.2484 C.2     1  UNL1        0.2343
     38 C          -2.5359    0.3428   -0.9061 C.3     1  UNL1       -0.0007
     39 C          -0.9103   -4.1153    1.7587 C.2     1  UNL1        0.2340
     40 C          -3.4031   -3.3795   -1.1377 C.3     1  UNL1       -0.0605
     41 C          -0.8620   -3.6779   -1.4178 C.3     1  UNL1       -0.0605
     42 C           0.8795   -7.9765   -2.0302 C.2     1  UNL1        0.2340
     43 C          -0.0974    1.6288    1.1392 C.2     1  UNL1        0.2343
     44 C           2.0332    1.5165    2.6151 C.3     1  UNL1       -0.0007
     45 C          -0.1140  -10.3545    2.4096 C.3     1  UNL1       -0.0626
     46 C           2.2564   -9.4859    2.0265 C.3     1  UNL1       -0.0626
     47 C           3.2416    3.8880   -1.1417 C.3     1  UNL1        0.1094
     48 C           1.3100    6.9684   -2.2014 C.3     1  UNL1        0.1048
     49 C           1.3113   -5.1299    1.7070 C.3     1  UNL1        0.0882
     50 C          -0.7219   -7.3638   -3.7769 C.3     1  UNL1        0.0999
     51 C           1.7328   -5.9595    0.5891 C.2     1  UNL1        0.2308
     52 C          -2.3384    1.6283   -1.6340 C.ar    1  UNL1       -0.0451
     53 C           2.9743    3.1116    0.0751 C.2     1  UNL1        0.2345
     54 C           1.4757    7.9979   -3.3658 C.3     1  UNL1        0.0160
     55 C           2.1527    5.7726   -2.2812 C.2     1  UNL1        0.2343
     56 C           1.4949    1.0672    3.9400 C.ar    1  UNL1       -0.0451
     57 C          -0.2531    6.9373    0.5391 C.3     1  UNL1        0.1001
     58 C          -1.4761   -8.4750   -4.5578 C.3     1  UNL1       -0.0170
     59 C           4.7398    4.3155   -1.3325 C.3     1  UNL1        0.0716
     60 C           0.8570    7.7716    0.0786 C.2     1  UNL1        0.2340
     61 C          -1.5508    7.7213    0.8949 C.3     1  UNL1       -0.0169
     62 C          -1.4441    1.7266   -2.7284 C.ar    1  UNL1       -0.0585
     63 C          -3.0522    2.7893   -1.2533 C.ar    1  UNL1       -0.0585
     64 C           0.6080    9.1956   -3.3010 C.ar    1  UNL1        0.0375
     65 C          -1.6072   -6.2152   -3.7033 C.2     1  UNL1        0.2308
     66 C          -0.6862   -9.7737   -4.8107 C.3     1  UNL1       -0.0044
     67 C           2.4349    1.0158    5.0065 C.ar    1  UNL1       -0.0585
     68 C           0.1573    0.7269    4.2593 C.ar    1  UNL1       -0.0585
     69 C          -2.7604    6.8308    1.2808 C.3     1  UNL1       -0.0044
     70 C           5.6838    3.2230   -1.4840 C.2     1  UNL1        0.3070
     71 C          -1.2521    2.9454   -3.4052 C.ar    1  UNL1       -0.0615
     72 C          -2.8635    4.0111   -1.9261 C.ar    1  UNL1       -0.0615
     73 C           0.6365    6.3226    2.7456 C.2     1  UNL1        0.2310
     74 C           1.4464    5.3284    3.4207 C.3     1  UNL1        0.0924
     75 C          -1.9588    4.0906   -2.9991 C.ar    1  UNL1       -0.0617
     76 C           0.9944   10.5312   -3.2432 C.ar    1  UNL1        0.0485
     77 C           2.0752    0.6443    6.3130 C.ar    1  UNL1       -0.0615
     78 C          -0.2194    0.3613    5.5689 C.ar    1  UNL1       -0.0615
     79 C           0.7404    0.3167    6.5950 C.ar    1  UNL1       -0.0617
     80 C           0.8318    4.7143    4.7118 C.3     1  UNL1        0.0684
     81 C          -1.1524   10.4774   -3.2390 C.ar    1  UNL1        0.0935
     82 C          -0.5558  -12.2614   -5.9563 C.3     1  UNL1       -0.0181
     83 C          -5.1719    6.3885    2.5115 C.3     1  UNL1       -0.0181
     84 C          -0.4956    4.1280    4.6493 C.2     1  UNL1        0.3067
     85 H          -2.8780   -3.5299    1.4799 H       1  UNL1        0.0597
     86 H          -2.2381   -4.9976   -0.4233 H       1  UNL1        0.0318
     87 H          -0.6510   -8.9878    0.0773 H       1  UNL1        0.0290
     88 H           0.6440  -10.1082   -0.2906 H       1  UNL1        0.0290
     89 H           2.2343   -8.2647   -0.5031 H       1  UNL1        0.0594
     90 H           0.4631   -8.3263    2.1886 H       1  UNL1        0.0296
     91 H          -2.6961    1.0806    1.1082 H       1  UNL1        0.0598
     92 H          -0.8163   -1.8125    0.4842 H       1  UNL1        0.1495
     93 H           1.6840    0.6882    0.6787 H       1  UNL1        0.0598
     94 H          -3.5989    0.0945   -0.9781 H       1  UNL1        0.0336
     95 H          -1.9990   -0.4525   -1.4308 H       1  UNL1        0.0336
     96 H          -0.1878   -0.0684    0.3098 H       1  UNL1        0.1495
     97 H          -4.2783   -3.6216   -0.5334 H       1  UNL1        0.0233
     98 H          -3.5720   -3.7883   -2.1313 H       1  UNL1        0.0233
     99 H          -3.3755   -2.3043   -1.2635 H       1  UNL1        0.0233
    100 H          -0.0744   -4.4080   -1.2315 H       1  UNL1        0.0233
    101 H          -0.4307   -2.6829   -1.3129 H       1  UNL1        0.0233
    102 H          -1.1201   -3.7648   -2.4660 H       1  UNL1        0.0233
    103 H          -0.0085   -6.5668    0.0945 H       1  UNL1        0.1495
    104 H           2.4111    2.5057    2.8452 H       1  UNL1        0.0336
    105 H           2.9319    0.9112    2.4542 H       1  UNL1        0.0336
    106 H          -1.1786  -10.1576    2.2686 H       1  UNL1        0.0232
    107 H           0.1083  -11.3475    2.0143 H       1  UNL1        0.0232
    108 H           0.0705  -10.3669    3.4865 H       1  UNL1        0.0232
    109 H           2.4287   -9.5830    3.1000 H       1  UNL1        0.0232
    110 H           2.6305  -10.3853    1.5335 H       1  UNL1        0.0232
    111 H           2.8616   -8.6391    1.7009 H       1  UNL1        0.0232
    112 H           2.9832    3.2146   -1.9667 H       1  UNL1        0.0600
    113 H           0.2825    6.6048   -2.2760 H       1  UNL1        0.0598
    114 H           1.1221    2.9696   -0.2429 H       1  UNL1        0.1495
    115 H           1.0058   -5.7995    2.5159 H       1  UNL1        0.0558
    116 H           2.1475   -4.5470    2.1022 H       1  UNL1        0.0558
    117 H           0.5840   -3.5855    0.7054 H       1  UNL1        0.1492
    118 H           0.1471   -7.0859   -4.3869 H       1  UNL1        0.0595
    119 H          -1.0077   -7.8231   -1.8541 H       1  UNL1        0.1495
    120 H           1.2536    7.5147   -4.3203 H       1  UNL1        0.0351
    121 H           2.5218    8.3170   -3.4129 H       1  UNL1        0.0351
    122 H           1.9437    5.2485   -0.4535 H       1  UNL1        0.1495
    123 H          -0.5504    6.2429   -0.2480 H       1  UNL1        0.0595
    124 H           5.0261    4.9531   -0.4896 H       1  UNL1        0.0401
    125 H           4.8650    4.9357   -2.2220 H       1  UNL1        0.0401
    126 H          -2.4001   -8.7390   -4.0323 H       1  UNL1        0.0296
    127 H          -1.7588   -8.0671   -5.5362 H       1  UNL1        0.0296
    128 H           2.3369    8.1803   -1.0250 H       1  UNL1        0.1495
    129 H          -1.8434    8.3378    0.0397 H       1  UNL1        0.0296
    130 H          -1.3305    8.4134    1.7104 H       1  UNL1        0.0296
    131 H          -0.9184    0.9101   -3.0505 H       1  UNL1        0.0620
    132 H          -3.7225    2.7582   -0.4814 H       1  UNL1        0.0620
    133 H           0.2544   -9.5476   -5.3182 H       1  UNL1        0.0377
    134 H          -0.4683  -10.2649   -3.8599 H       1  UNL1        0.0377
    135 H           0.3065    5.1854    1.2629 H       1  UNL1        0.1495
    136 H           3.4173    1.2587    4.8490 H       1  UNL1        0.0620
    137 H          -0.5830    0.7478    3.5625 H       1  UNL1        0.0620
    138 H          -3.2203    6.4288    0.3759 H       1  UNL1        0.0377
    139 H          -2.4370    5.9897    1.8955 H       1  UNL1        0.0377
    140 H          -0.6015    2.9986   -4.1925 H       1  UNL1        0.0618
    141 H          -3.3860    4.8406   -1.6384 H       1  UNL1        0.0618
    142 H          -1.3059    8.4230   -3.3218 H       1  UNL1        0.1665
    143 H           1.6425    4.5171    2.7248 H       1  UNL1        0.0560
    144 H           1.9547   10.8804   -3.2322 H       1  UNL1        0.0848
    145 H          -1.8182    4.9782   -3.4865 H       1  UNL1        0.0618
    146 H           2.7813    0.6159    7.0531 H       1  UNL1        0.0618
    147 H          -1.1926    0.1322    5.7837 H       1  UNL1        0.0618
    148 H           0.4730    0.0491    7.5453 H       1  UNL1        0.0618
    149 H          -2.8227   -6.9625   -2.4020 H       1  UNL1        0.1450
    150 H          -3.2293   -5.4984   -2.9418 H       1  UNL1        0.1450
    151 H           0.8087    5.4817    5.4888 H       1  UNL1        0.0398
    152 H           1.5164    3.9353    5.0584 H       1  UNL1        0.0398
    153 H          -2.1298   10.7727   -3.2261 H       1  UNL1        0.1027
    154 H           3.1902    6.1572    2.7989 H       1  UNL1        0.1189
    155 H           3.3574    5.1491    4.0812 H       1  UNL1        0.1189
    156 H           5.0121    2.5465   -3.0567 H       1  UNL1        0.2951
    157 H          -1.0243  -13.0300   -6.5697 H       1  UNL1        0.0340
    158 H          -0.3614  -12.6636   -4.9619 H       1  UNL1        0.0340
    159 H           0.3781  -11.9481   -6.4236 H       1  UNL1        0.0340
    160 H          -5.9892    6.7562    3.1313 H       1  UNL1        0.0340
    161 H          -5.5767    6.0367    1.5623 H       1  UNL1        0.0340
    162 H          -4.6826    5.5632    3.0308 H       1  UNL1        0.0340
    163 H          -0.5249    3.4579    6.3615 H       1  UNL1        0.2951
@<TRIPOS>BOND
     1     1    66    1
     2     1    82    1
     3     2    69    1
     4     2    83    1
     5     3    37    2
     6     4    39    2
     7     5    42    2
     8     6    43    2
     9     7    51    2
    10     8    53    2
    11     9    55    2
    12    10    60    2
    13    11    65    2
    14    12    70    1
    15    12   156    1
    16    13    70    2
    17    14    73    2
    18    15    84    1
    19    15   163    1
    20    16    84    2
    21    30    17    1
    22    17    37   am
    23    17    92    1
    24    35    18    1
    25    18    43   am
    26    18    96    1
    27    33    19    1
    28    19    51   am
    29    19   103    1
    30    36    20    1
    31    20    53   am
    32    20   114    1
    33    21    39   am
    34    21    49    1
    35    21   117    1
    36    22    42   am
    37    50    22    1
    38    22   119    1
    39    47    23    1
    40    23    55   am
    41    23   122    1
    42    48    24    1
    43    24    60   am
    44    24   128    1
    45    57    25    1
    46    25    73   am
    47    25   135    1
    48    26    64   ar
    49    26    81   ar
    50    26   142    1
    51    27    65   am
    52    27   149    1
    53    27   150    1
    54    28    76   ar
    55    28    81   ar
    56    74    29    1
    57    29   154    1
    58    29   155    1
    59    30    31    1
    60    30    39    1
    61    30    85    1
    62    31    40    1
    63    31    41    1
    64    31    86    1
    65    32    33    1
    66    32    34    1
    67    32    87    1
    68    32    88    1
    69    33    42    1
    70    33    89    1
    71    34    45    1
    72    34    46    1
    73    34    90    1
    74    35    37    1
    75    35    38    1
    76    35    91    1
    77    36    43    1
    78    36    44    1
    79    36    93    1
    80    38    52    1
    81    38    94    1
    82    38    95    1
    83    40    97    1
    84    40    98    1
    85    40    99    1
    86    41   100    1
    87    41   101    1
    88    41   102    1
    89    44    56    1
    90    44   104    1
    91    44   105    1
    92    45   106    1
    93    45   107    1
    94    45   108    1
    95    46   109    1
    96    46   110    1
    97    46   111    1
    98    47    53    1
    99    47    59    1
   100    47   112    1
   101    48    54    1
   102    48    55    1
   103    48   113    1
   104    49    51    1
   105    49   115    1
   106    49   116    1
   107    50    58    1
   108    50    65    1
   109    50   118    1
   110    52    62   ar
   111    52    63   ar
   112    54    64    1
   113    54   120    1
   114    54   121    1
   115    56    67   ar
   116    56    68   ar
   117    57    60    1
   118    57    61    1
   119    57   123    1
   120    58    66    1
   121    58   126    1
   122    58   127    1
   123    59    70    1
   124    59   124    1
   125    59   125    1
   126    61    69    1
   127    61   129    1
   128    61   130    1
   129    62    71   ar
   130    62   131    1
   131    63    72   ar
   132    63   132    1
   133    64    76   ar
   134    66   133    1
   135    66   134    1
   136    67    77   ar
   137    67   136    1
   138    68    78   ar
   139    68   137    1
   140    69   138    1
   141    69   139    1
   142    71    75   ar
   143    71   140    1
   144    72    75   ar
   145    72   141    1
   146    73    74    1
   147    74    80    1
   148    74   143    1
   149    75   145    1
   150    76   144    1
   151    77    79   ar
   152    77   146    1
   153    78    79   ar
   154    78   147    1
   155    79   148    1
   156    80    84    1
   157    80   151    1
   158    80   152    1
   159    81   153    1
   160    82   157    1
   161    82   158    1
   162    82   159    1
   163    83   160    1
   164    83   161    1
   165    83   162    1
