@<TRIPOS>MOLECULE
5892
 71 75 0 0 0
SMALL
GASTEIGER

@<TRIPOS>ATOM
      1 P          -0.8720   -2.0960    2.1262 P.3     1  UNL1        0.4804
      2 P          -1.5953   -0.4405    0.2116 P.3     1  UNL1        0.2222
      3 O           0.3311    1.4403    4.0635 O.3     1  UNL1       -0.3456
      4 O           0.5418   -0.9048   -4.2160 O.3     1  UNL1       -0.3094
      5 O           2.6246    0.4151    6.3466 O.3     1  UNL1       -0.3864
      6 O           1.1624    2.4857    7.4129 O.3     1  UNL1       -0.3847
      7 O          -2.9804   -1.3531   -3.6189 O.3     1  UNL1       -0.3862
      8 O          -2.1576   -0.7463   -6.1636 O.3     1  UNL1       -0.3803
      9 O          -0.0597   -1.1257    2.8516 O.3     1  UNL1       -0.2838
     10 O          -1.4225   -0.4450   -1.2309 O.3     1  UNL1       -0.3245
     11 O          -1.0408   -1.6763    0.7471 O.3     1  UNL1       -0.2292
     12 O          -2.1588   -2.3027    2.7505 O.3     1  UNL1       -0.3023
     13 O          -0.1909   -3.3654    2.0998 O.2     1  UNL1       -0.2270
     14 O          -0.9591    0.7436    0.7410 O.co2   1  UNL1       -0.4370
     15 O          -3.0116   -0.3511    0.4620 O.2     1  UNL1       -0.5170
     16 O           5.3215   -1.1807   -5.9694 O.2     1  UNL1       -0.2702
     17 N          -0.2565    3.6117    4.9052 N.ar    1  UNL1       -0.2855
     18 N           1.2124   -2.1773   -6.0799 N.ar    1  UNL1       -0.1731
     19 N          -0.9968    5.7266    4.8714 N.ar    1  UNL1       -0.2306
     20 N          -2.4760    2.5497    4.8440 N.ar    1  UNL1       -0.2159
     21 N          -4.2776    4.0636    4.8466 N.ar    1  UNL1       -0.2188
     22 N          -3.9691    6.3395    4.9496 N.pl3   1  UNL1       -0.3413
     23 N           5.7460   -2.4789   -7.5885 N.am    1  UNL1       -0.3252
     24 C           1.2324    0.4109    6.0339 C.3     1  UNL1        0.1135
     25 C           0.5598    1.7586    6.3459 C.3     1  UNL1        0.1285
     26 C           0.9898    0.2416    4.5093 C.3     1  UNL1        0.1134
     27 C           0.6367    2.4897    4.9915 C.3     1  UNL1        0.1667
     28 C          -1.6231   -1.6448   -3.9451 C.3     1  UNL1        0.1184
     29 C          -1.3290   -1.6689   -5.4544 C.3     1  UNL1        0.1727
     30 C          -0.6280   -0.5773   -3.4596 C.3     1  UNL1        0.1176
     31 C           0.1835   -1.2853   -5.5562 C.3     1  UNL1        0.2949
     32 C           0.1583   -1.0176    4.1649 C.3     1  UNL1        0.0879
     33 C          -0.3032   -0.5988   -1.9496 C.3     1  UNL1        0.0838
     34 C          -1.6013    3.5888    4.8723 C.ar    1  UNL1        0.1674
     35 C           0.0802    4.9201    4.8741 C.ar    1  UNL1        0.1004
     36 C           2.5148   -1.7330   -6.1369 C.ar    1  UNL1        0.1859
     37 C           0.9447   -3.4420   -6.5357 C.ar    1  UNL1        0.1738
     38 C          -2.0587    4.9077    4.8796 C.ar    1  UNL1        0.1473
     39 C           3.5871   -2.5109   -6.6502 C.ar    1  UNL1        0.1000
     40 C           1.9417   -4.2854   -7.0485 C.ar    1  UNL1        0.0029
     41 C          -3.4462    5.1402    4.8887 C.ar    1  UNL1        0.1472
     42 C           3.2563   -3.8093   -7.0972 C.ar    1  UNL1       -0.0383
     43 C          -3.8138    2.7850    4.8227 C.ar    1  UNL1        0.1205
     44 C           4.8983   -2.0444   -6.7238 C.2     1  UNL1        0.2472
     45 H           0.7768   -0.3766    6.6420 H       1  UNL1        0.0647
     46 H          -0.4845    1.5795    6.6213 H       1  UNL1        0.0665
     47 H           1.9442    0.1808    3.9745 H       1  UNL1        0.0647
     48 H           1.6681    2.8246    4.8181 H       1  UNL1        0.0866
     49 H          -1.3746   -2.6167   -3.5050 H       1  UNL1        0.0649
     50 H          -1.6176   -2.6443   -5.8376 H       1  UNL1        0.0716
     51 H          -0.9805    0.4262   -3.7282 H       1  UNL1        0.0648
     52 H           0.2401   -0.3692   -6.1562 H       1  UNL1        0.1444
     53 H           0.6990   -1.8997    4.5226 H       1  UNL1        0.0592
     54 H          -0.7926   -0.9505    4.7035 H       1  UNL1        0.0592
     55 H           0.4024    0.2114   -1.7400 H       1  UNL1        0.0591
     56 H           0.1910   -1.5461   -1.7094 H       1  UNL1        0.0591
     57 H           2.9373   -0.4845    6.1130 H       1  UNL1        0.2100
     58 H           1.0634    1.9065    8.1982 H       1  UNL1        0.2101
     59 H          -3.4996   -2.0857   -4.0138 H       1  UNL1        0.2100
     60 H          -1.9222   -0.8732   -7.1071 H       1  UNL1        0.2103
     61 H           1.0383    5.2783    4.8675 H       1  UNL1        0.1030
     62 H           2.7327   -0.7864   -5.8053 H       1  UNL1        0.1385
     63 H           0.0146   -3.8507   -6.5350 H       1  UNL1        0.1377
     64 H           1.7152   -5.2258   -7.3796 H       1  UNL1        0.0677
     65 H           3.9686   -4.4462   -7.4646 H       1  UNL1        0.0629
     66 H          -4.4691    2.0036    4.7949 H       1  UNL1        0.1048
     67 H          -2.7336   -2.8728    2.4058 H       1  UNL1        0.2220
     68 H          -4.8832    6.4571    4.7821 H       1  UNL1        0.1438
     69 H          -3.4383    7.0794    5.1725 H       1  UNL1        0.1438
     70 H           5.4786   -3.1020   -8.2336 H       1  UNL1        0.1453
     71 H           6.6303   -2.1739   -7.5890 H       1  UNL1        0.1453
@<TRIPOS>BOND
     1     1     9    1
     2     1    11    1
     3     1    12    1
     4     1    13    2
     5     2    10    1
     6     2    11    1
     7     2    14    1
     8     2    15    2
     9     3    26    1
    10     3    27    1
    11     4    30    1
    12     4    31    1
    13    24     5    1
    14     5    57    1
    15    25     6    1
    16     6    58    1
    17    28     7    1
    18     7    59    1
    19    29     8    1
    20     8    60    1
    21     9    32    1
    22    10    33    1
    23    12    67    1
    24    16    44    2
    25    27    17    1
    26    17    34   ar
    27    17    35   ar
    28    31    18    1
    29    18    36   ar
    30    18    37   ar
    31    19    35   ar
    32    19    38   ar
    33    20    34   ar
    34    20    43   ar
    35    21    41   ar
    36    21    43   ar
    37    22    41    1
    38    22    68    1
    39    22    69    1
    40    23    44   am
    41    23    70    1
    42    23    71    1
    43    24    25    1
    44    24    26    1
    45    24    45    1
    46    25    27    1
    47    25    46    1
    48    26    32    1
    49    26    47    1
    50    27    48    1
    51    28    29    1
    52    28    30    1
    53    28    49    1
    54    29    31    1
    55    29    50    1
    56    30    33    1
    57    30    51    1
    58    31    52    1
    59    32    53    1
    60    32    54    1
    61    33    55    1
    62    33    56    1
    63    34    38   ar
    64    35    61    1
    65    36    39   ar
    66    36    62    1
    67    37    40   ar
    68    37    63    1
    69    38    41   ar
    70    39    42   ar
    71    39    44    1
    72    40    42   ar
    73    40    64    1
    74    42    65    1
    75    43    66    1
