@<TRIPOS>MOLECULE
23492
 27 28 0 0 0
SMALL
GASTEIGER

@<TRIPOS>ATOM
      1 N           0.0371    1.9737   -0.3482 N.ar    1  UNL1       -0.3494
      2 N           2.8963   -2.9228    1.1126 N.3     1  UNL1       -0.3297
      3 C           0.7740   -0.1626   -0.3595 C.ar    1  UNL1       -0.0210
      4 C          -0.6183   -0.1705   -0.3526 C.ar    1  UNL1        0.0031
      5 C          -1.0459    1.1641   -0.3485 C.ar    1  UNL1        0.0491
      6 C           1.6861   -1.3248   -0.3400 C.3     1  UNL1       -0.0133
      7 C           1.1333    1.1846   -0.3534 C.ar    1  UNL1        0.0086
      8 C          -1.5411   -1.2361   -0.3428 C.ar    1  UNL1       -0.0523
      9 C           2.0046   -1.7609    1.1066 C.3     1  UNL1       -0.0029
     10 C          -2.4261    1.4552   -0.3412 C.ar    1  UNL1       -0.0376
     11 C           0.0774    3.4045   -0.3398 C.3     1  UNL1        0.0119
     12 C          -2.9172   -0.9388   -0.3381 C.ar    1  UNL1       -0.0611
     13 C          -3.3576    0.3991   -0.3384 C.ar    1  UNL1       -0.0598
     14 H           2.6123   -1.0794   -0.8662 H       1  UNL1        0.0326
     15 H           1.2336   -2.1575   -0.8845 H       1  UNL1        0.0326
     16 H           2.1013    1.5203   -0.3472 H       1  UNL1        0.0812
     17 H           1.0898   -2.0300    1.6405 H       1  UNL1        0.0425
     18 H           2.4965   -0.9521    1.6517 H       1  UNL1        0.0425
     19 H          -1.2266   -2.2086   -0.3381 H       1  UNL1        0.0624
     20 H          -2.7617    2.4191   -0.3371 H       1  UNL1        0.0638
     21 H           0.6008    3.7607    0.5497 H       1  UNL1        0.0456
     22 H           0.6004    3.7684   -1.2261 H       1  UNL1        0.0456
     23 H          -0.9110    3.8649   -0.3373 H       1  UNL1        0.0456
     24 H          -3.6010   -1.6996   -0.3340 H       1  UNL1        0.0618
     25 H          -4.3588    0.6073   -0.3356 H       1  UNL1        0.0618
     26 H           3.0318   -3.1924    2.0888 H       1  UNL1        0.1182
     27 H           2.3901   -3.6861    0.6587 H       1  UNL1        0.1182
@<TRIPOS>BOND
     1     1     5   ar
     2     1     7   ar
     3     1    11    1
     4     2     9    1
     5     2    26    1
     6     2    27    1
     7     3     4   ar
     8     3     6    1
     9     3     7   ar
    10     4     5   ar
    11     4     8   ar
    12     5    10   ar
    13     6     9    1
    14     6    14    1
    15     6    15    1
    16     7    16    1
    17     8    12   ar
    18     8    19    1
    19     9    17    1
    20     9    18    1
    21    10    13   ar
    22    10    20    1
    23    11    21    1
    24    11    22    1
    25    11    23    1
    26    12    13   ar
    27    12    24    1
    28    13    25    1
