23492
  Marvin  12300703363D          

 27 28  0  0  0  0            999 V2000
    0.0371    1.9737   -0.3482 N   0  0  0  0  0  0  0  0  0  0  0  0
    2.8963   -2.9228    1.1126 N   0  0  0  0  0  0  0  0  0  0  0  0
    0.7740   -0.1626   -0.3595 C   0  0  0  0  0  0  0  0  0  0  0  0
   -0.6183   -0.1705   -0.3526 C   0  0  0  0  0  0  0  0  0  0  0  0
   -1.0459    1.1641   -0.3485 C   0  0  0  0  0  0  0  0  0  0  0  0
    1.6861   -1.3248   -0.3400 C   0  0  0  0  0  0  0  0  0  0  0  0
    1.1333    1.1846   -0.3534 C   0  0  0  0  0  0  0  0  0  0  0  0
   -1.5411   -1.2361   -0.3428 C   0  0  0  0  0  0  0  0  0  0  0  0
    2.0046   -1.7609    1.1066 C   0  0  0  0  0  0  0  0  0  0  0  0
   -2.4261    1.4552   -0.3412 C   0  0  0  0  0  0  0  0  0  0  0  0
    0.0774    3.4045   -0.3398 C   0  0  0  0  0  0  0  0  0  0  0  0
   -2.9172   -0.9388   -0.3381 C   0  0  0  0  0  0  0  0  0  0  0  0
   -3.3576    0.3991   -0.3384 C   0  0  0  0  0  0  0  0  0  0  0  0
    2.6123   -1.0794   -0.8662 H   0  0  0  0  0  0  0  0  0  0  0  0
    1.2336   -2.1575   -0.8845 H   0  0  0  0  0  0  0  0  0  0  0  0
    2.1013    1.5203   -0.3472 H   0  0  0  0  0  0  0  0  0  0  0  0
    1.0898   -2.0300    1.6405 H   0  0  0  0  0  0  0  0  0  0  0  0
    2.4965   -0.9521    1.6517 H   0  0  0  0  0  0  0  0  0  0  0  0
   -1.2266   -2.2086   -0.3381 H   0  0  0  0  0  0  0  0  0  0  0  0
   -2.7617    2.4191   -0.3371 H   0  0  0  0  0  0  0  0  0  0  0  0
    0.6008    3.7607    0.5497 H   0  0  0  0  0  0  0  0  0  0  0  0
    0.6004    3.7684   -1.2261 H   0  0  0  0  0  0  0  0  0  0  0  0
   -0.9110    3.8649   -0.3373 H   0  0  0  0  0  0  0  0  0  0  0  0
   -3.6010   -1.6996   -0.3340 H   0  0  0  0  0  0  0  0  0  0  0  0
   -4.3588    0.6073   -0.3356 H   0  0  0  0  0  0  0  0  0  0  0  0
    3.0318   -3.1924    2.0888 H   0  0  0  0  0  0  0  0  0  0  0  0
    2.3901   -3.6861    0.6587 H   0  0  0  0  0  0  0  0  0  0  0  0
  1  5  1  0  0  0  0
  1  7  1  0  0  0  0
  1 11  1  0  0  0  0
  2  9  1  0  0  0  0
  2 26  1  0  0  0  0
  2 27  1  0  0  0  0
  3  4  1  0  0  0  0
  3  6  1  0  0  0  0
  3  7  2  0  0  0  0
  4  5  1  0  0  0  0
  4  8  2  0  0  0  0
  5 10  2  0  0  0  0
  6  9  1  0  0  0  0
  6 14  1  0  0  0  0
  6 15  1  0  0  0  0
  7 16  1  0  0  0  0
  8 12  1  0  0  0  0
  8 19  1  0  0  0  0
  9 17  1  0  0  0  0
  9 18  1  0  0  0  0
 10 13  1  0  0  0  0
 10 20  1  0  0  0  0
 11 21  1  0  0  0  0
 11 22  1  0  0  0  0
 11 23  1  0  0  0  0
 12 13  2  0  0  0  0
 12 24  1  0  0  0  0
 13 25  1  0  0  0  0
M  END

> <PUBCHEM_BONDANNOTATIONS>
1  5  8
1  7  8
10  13  8
12  13  8
3  4  8
3  7  8
4  5  8
4  8  8
5  10  8
8  12  8

> <StdInChI>
InChI=1S/C11H14N2/c1-13-8-9(6-7-12)10-4-2-3-5-11(10)13/h2-5,8H,6-7,12H2,1H3

> <StdInChIKey>
CAAGZPJPCKMFBD-UHFFFAOYSA-N

> <AuxInfo>
1/0/N:11,12,13,8,10,6,9,7,3,4,5,2,1/rA:27nNNCCCCCCCCCCCHHHHHHHHHHHHHH/rB:;;s3;s1s4;s3;s1d3;d4;s2s6;d5;s1;s8;s10d12;s6;s6;s7;s9;s9;s8;s10;s11;s11;s11;s12;s13;s2;s2;/rC:.0371,1.9737,-.3482;2.8963,-2.9228,1.1126;.774,-.1626,-.3595;-.6183,-.1705,-.3526;-1.0459,1.1641,-.3485;1.6861,-1.3248,-.34;1.1333,1.1846,-.3534;-1.5411,-1.2361,-.3428;2.0046,-1.7609,1.1066;-2.4261,1.4552,-.3412;.0774,3.4045,-.3398;-2.9172,-.9388,-.3381;-3.3576,.3991,-.3384;2.6123,-1.0794,-.8662;1.2336,-2.1575,-.8845;2.1013,1.5203,-.3472;1.0898,-2.03,1.6405;2.4965,-.9521,1.6517;-1.2266,-2.2086,-.3381;-2.7617,2.4191,-.3371;.6008,3.7607,.5497;.6004,3.7684,-1.2261;-.911,3.8649,-.3373;-3.601,-1.6996,-.334;-4.3588,.6073,-.3356;3.0318,-3.1924,2.0888;2.3901,-3.6861,.6587;

> <Formula>
C11 H14 N2

> <Mw>
174.2423

> <SMILES>
N1(C([H])([H])[H])C([H])=C(C([H])([H])C([H])([H])N([H])[H])C2=C([H])C([H])=C([H])C([H])=C12

> <CSID>
21963

$$$$
