@<TRIPOS>MOLECULE
439260
 23 23 0 0 0
SMALL
GASTEIGER

@<TRIPOS>ATOM
      1 O          -0.1852   -2.2004    1.0981 O.3     1  UNL1       -0.3859
      2 O           3.5991    0.9784   -0.0688 O.3     1  UNL1       -0.5033
      3 O           2.3279    3.3593   -0.0652 O.3     1  UNL1       -0.5033
      4 N          -2.8119   -2.6613   -0.0615 N.3     1  UNL1       -0.3274
      5 C          -0.5900   -1.4303   -0.0348 C.3     1  UNL1        0.0925
      6 C           0.1653   -0.1386   -0.0485 C.ar    1  UNL1       -0.0143
      7 C          -2.1405   -1.3595   -0.0454 C.3     1  UNL1        0.0235
      8 C           1.5820   -0.1579   -0.0628 C.ar    1  UNL1       -0.0109
      9 C          -0.4625    1.1323   -0.0506 C.ar    1  UNL1       -0.0524
     10 C           2.3424    1.0312   -0.0659 C.ar    1  UNL1        0.1586
     11 C           0.2792    2.3244   -0.0592 C.ar    1  UNL1       -0.0162
     12 C           1.6843    2.2794   -0.0638 C.ar    1  UNL1        0.1582
     13 H          -0.2906   -1.9972   -0.9209 H       1  UNL1        0.0656
     14 H          -2.4805   -0.8207   -0.9326 H       1  UNL1        0.0451
     15 H          -2.4944   -0.8297    0.8417 H       1  UNL1        0.0451
     16 H           2.0786   -1.0541   -0.0684 H       1  UNL1        0.0659
     17 H          -1.4783    1.2291   -0.0462 H       1  UNL1        0.0622
     18 H          -0.2142    3.2214   -0.0613 H       1  UNL1        0.0655
     19 H          -0.4436   -1.6747    1.8840 H       1  UNL1        0.2103
     20 H          -3.8146   -2.4598   -0.0900 H       1  UNL1        0.1183
     21 H          -2.5791   -3.1098   -0.9495 H       1  UNL1        0.1183
     22 H           4.0220    0.2061   -0.0664 H       1  UNL1        0.2923
     23 H           1.9046    4.1322   -0.0620 H       1  UNL1        0.2923
@<TRIPOS>BOND
     1     5     1    1
     2     1    19    1
     3     2    10    1
     4     2    22    1
     5     3    12    1
     6     3    23    1
     7     4     7    1
     8     4    20    1
     9     4    21    1
    10     5     6    1
    11     5     7    1
    12     5    13    1
    13     6     8   ar
    14     6     9   ar
    15     7    14    1
    16     7    15    1
    17     8    10   ar
    18     8    16    1
    19     9    11   ar
    20     9    17    1
    21    10    12   ar
    22    11    12   ar
    23    11    18    1
