@<TRIPOS>MOLECULE
4581
 22 22 0 0 0
SMALL
GASTEIGER

@<TRIPOS>ATOM
      1 O          -1.9297   -1.2094   -1.0586 O.3     1  UNL1       -0.3859
      2 O           2.1037    3.5376   -0.3351 O.3     1  UNL1       -0.5068
      3 N          -1.6868   -3.0244    1.1348 N.3     1  UNL1       -0.3274
      4 C          -0.6922   -1.2912   -0.3475 C.3     1  UNL1        0.0924
      5 C           0.0535   -0.0052   -0.3605 C.ar    1  UNL1       -0.0177
      6 C          -0.9512   -1.7576    1.1046 C.3     1  UNL1        0.0235
      7 C           1.4697    0.0114   -0.3565 C.ar    1  UNL1       -0.0526
      8 C          -0.6305    1.2330   -0.3406 C.ar    1  UNL1       -0.0526
      9 C           2.1792    1.2272   -0.3453 C.ar    1  UNL1       -0.0198
     10 C           0.0720    2.4499   -0.3361 C.ar    1  UNL1       -0.0198
     11 C           1.4799    2.4493   -0.3395 C.ar    1  UNL1        0.1169
     12 H          -0.1168   -2.0628   -0.8683 H       1  UNL1        0.0656
     13 H          -0.0065   -1.9040    1.6345 H       1  UNL1        0.0451
     14 H          -1.5364   -1.0134    1.6499 H       1  UNL1        0.0451
     15 H           2.0004   -0.8633   -0.3548 H       1  UNL1        0.0622
     16 H          -1.6525    1.2666   -0.3258 H       1  UNL1        0.0622
     17 H           3.2023    1.2139   -0.3397 H       1  UNL1        0.0654
     18 H          -0.4488    3.3298   -0.3279 H       1  UNL1        0.0654
     19 H          -1.7000   -0.8680   -1.9485 H       1  UNL1        0.2103
     20 H          -1.7771   -3.2981    2.1151 H       1  UNL1        0.1183
     21 H          -1.0948   -3.7217    0.6788 H       1  UNL1        0.1183
     22 H           1.6628    4.3002   -0.3330 H       1  UNL1        0.2921
@<TRIPOS>BOND
     1     1     4    1
     2     1    19    1
     3     2    11    1
     4     2    22    1
     5     3     6    1
     6     3    20    1
     7     3    21    1
     8     4     5    1
     9     4     6    1
    10     4    12    1
    11     5     7   ar
    12     5     8   ar
    13     6    13    1
    14     6    14    1
    15     7     9   ar
    16     7    15    1
    17     8    10   ar
    18     8    16    1
    19     9    11   ar
    20     9    17    1
    21    10    11   ar
    22    10    18    1
