4581
  Marvin  12300703363D          

 22 22  0  0  1  0            999 V2000
   -1.9297   -1.2094   -1.0586 O   0  0  0  0  0  0  0  0  0  0  0  0
    2.1037    3.5376   -0.3351 O   0  0  0  0  0  0  0  0  0  0  0  0
   -1.6868   -3.0244    1.1348 N   0  0  0  0  0  0  0  0  0  0  0  0
   -0.6922   -1.2912   -0.3475 C   0  0  1  0  0  0  0  0  0  0  0  0
    0.0535   -0.0052   -0.3605 C   0  0  0  0  0  0  0  0  0  0  0  0
   -0.9512   -1.7576    1.1046 C   0  0  0  0  0  0  0  0  0  0  0  0
    1.4697    0.0114   -0.3565 C   0  0  0  0  0  0  0  0  0  0  0  0
   -0.6305    1.2330   -0.3406 C   0  0  0  0  0  0  0  0  0  0  0  0
    2.1792    1.2272   -0.3453 C   0  0  0  0  0  0  0  0  0  0  0  0
    0.0720    2.4499   -0.3361 C   0  0  0  0  0  0  0  0  0  0  0  0
    1.4799    2.4493   -0.3395 C   0  0  0  0  0  0  0  0  0  0  0  0
   -0.1168   -2.0628   -0.8683 H   0  0  0  0  0  0  0  0  0  0  0  0
   -0.0065   -1.9040    1.6345 H   0  0  0  0  0  0  0  0  0  0  0  0
   -1.5364   -1.0134    1.6499 H   0  0  0  0  0  0  0  0  0  0  0  0
    2.0004   -0.8633   -0.3548 H   0  0  0  0  0  0  0  0  0  0  0  0
   -1.6525    1.2666   -0.3258 H   0  0  0  0  0  0  0  0  0  0  0  0
    3.2023    1.2139   -0.3397 H   0  0  0  0  0  0  0  0  0  0  0  0
   -0.4488    3.3298   -0.3279 H   0  0  0  0  0  0  0  0  0  0  0  0
   -1.7000   -0.8680   -1.9485 H   0  0  0  0  0  0  0  0  0  0  0  0
   -1.7771   -3.2981    2.1151 H   0  0  0  0  0  0  0  0  0  0  0  0
   -1.0948   -3.7217    0.6788 H   0  0  0  0  0  0  0  0  0  0  0  0
    1.6628    4.3002   -0.3330 H   0  0  0  0  0  0  0  0  0  0  0  0
  1  4  1  0  0  0  0
  1 19  1  0  0  0  0
  2 11  1  0  0  0  0
  2 22  1  0  0  0  0
  3  6  1  0  0  0  0
  3 20  1  0  0  0  0
  3 21  1  0  0  0  0
  4  5  1  0  0  0  0
  4  6  1  0  0  0  0
  4 12  1  0  0  0  0
  5  7  2  0  0  0  0
  5  8  1  0  0  0  0
  6 13  1  0  0  0  0
  6 14  1  0  0  0  0
  7  9  1  0  0  0  0
  7 15  1  0  0  0  0
  8 10  2  0  0  0  0
  8 16  1  0  0  0  0
  9 11  2  0  0  0  0
  9 17  1  0  0  0  0
 10 11  1  0  0  0  0
 10 18  1  0  0  0  0
M  END

> <PUBCHEM_BONDANNOTATIONS>
4  1  3
10  11  8
5  7  8
5  8  8
7  9  8
8  10  8
9  11  8

> <StdInChI>
InChI=1S/C8H11NO2/c9-5-8(11)6-1-3-7(10)4-2-6/h1-4,8,10-11H,5,9H2/t8-/m1/s1

> <StdInChIKey>
QHGUCRYDKWKLMG-MRVPVSSYSA-N

> <AuxInfo>
1/0/N:7,8,9,10,6,5,11,4,3,2,1/E:(1,2)(3,4)/it:im/rA:22cOONCCCCCCCCHHHHHHHHHHH/rB:;;s1;s4;s3s4;d5;s5;s7;d8;s2d9s10;s4;s6;s6;s7;s8;s9;s10;s1;s3;s3;s2;/rC:-1.9297,-1.2094,-1.0586;2.1037,3.5376,-.3351;-1.6868,-3.0244,1.1348;-.6922,-1.2912,-.3475;.0535,-.0052,-.3605;-.9512,-1.7576,1.1046;1.4697,.0114,-.3565;-.6305,1.233,-.3406;2.1792,1.2272,-.3453;.072,2.4499,-.3361;1.4799,2.4493,-.3395;-.1168,-2.0628,-.8683;-.0065,-1.904,1.6345;-1.5364,-1.0134,1.6499;2.0004,-.8633,-.3548;-1.6525,1.2666,-.3258;3.2023,1.2139,-.3397;-.4488,3.3298,-.3279;-1.7,-.868,-1.9485;-1.7771,-3.2981,2.1151;-1.0948,-3.7217,.6788;1.6628,4.3002,-.333;

> <Formula>
C8 H11 N O2

> <Mw>
153.1784

> <SMILES>
O([H])[C@]([H])(C([H])([H])N([H])[H])C1C([H])=C([H])C(=C([H])C=1[H])O[H]

> <CSID>
4420

$$$$
