@<TRIPOS>MOLECULE
5202
 25 26 0 0 0
SMALL
GASTEIGER

@<TRIPOS>ATOM
      1 O          -3.5973   -1.2765   -0.3616 O.3     1  UNL1       -0.5067
      2 N           0.1986    2.5424   -0.3752 N.ar    1  UNL1       -0.3604
      3 N           3.0423   -2.3504    1.0873 N.3     1  UNL1       -0.3297
      4 C           0.9389    0.4273   -0.3873 C.ar    1  UNL1       -0.0211
      5 C          -0.4547    0.4187   -0.3809 C.ar    1  UNL1        0.0063
      6 C           1.8414   -0.7418   -0.3671 C.3     1  UNL1       -0.0133
      7 C          -0.8840    1.7498   -0.3764 C.ar    1  UNL1        0.0470
      8 C           1.3017    1.7755   -0.3818 C.ar    1  UNL1        0.0059
      9 C           2.1538   -1.1863    1.0791 C.3     1  UNL1       -0.0029
     10 C          -1.3826   -0.6389   -0.3708 C.ar    1  UNL1       -0.0108
     11 C          -2.2544    2.0640   -0.3684 C.ar    1  UNL1       -0.0343
     12 C          -2.7606   -0.3389   -0.3659 C.ar    1  UNL1        0.1176
     13 C          -3.1912    1.0084   -0.3655 C.ar    1  UNL1       -0.0182
     14 H           2.7685   -0.5011   -0.8928 H       1  UNL1        0.0326
     15 H           1.3846   -1.5706   -0.9147 H       1  UNL1        0.0326
     16 H           2.2582    2.1343   -0.3761 H       1  UNL1        0.0810
     17 H           0.1910    3.5129   -0.3664 H       1  UNL1        0.1653
     18 H           1.2378   -1.4581    1.6098 H       1  UNL1        0.0425
     19 H           2.6450   -0.3812    1.6304 H       1  UNL1        0.0425
     20 H          -1.0601   -1.6091   -0.3655 H       1  UNL1        0.0661
     21 H          -2.5623    3.0390   -0.3637 H       1  UNL1        0.0639
     22 H          -4.1897    1.2286   -0.3619 H       1  UNL1        0.0655
     23 H           3.1722   -2.6186    2.0649 H       1  UNL1        0.1182
     24 H           2.5330   -3.1124    0.6347 H       1  UNL1        0.1182
     25 H          -3.3302   -2.1172   -0.3640 H       1  UNL1        0.2921
@<TRIPOS>BOND
     1     1    12    1
     2     1    25    1
     3     2     7   ar
     4     2     8   ar
     5     2    17    1
     6     3     9    1
     7     3    23    1
     8     3    24    1
     9     4     5   ar
    10     4     6    1
    11     4     8   ar
    12     5     7   ar
    13     5    10   ar
    14     6     9    1
    15     6    14    1
    16     6    15    1
    17     7    11   ar
    18     8    16    1
    19     9    18    1
    20     9    19    1
    21    10    12   ar
    22    10    20    1
    23    11    13   ar
    24    11    21    1
    25    12    13   ar
    26    13    22    1
