
  Marvin  01010823043D          

115120  0  0  1  0            999 V2000
   -5.9502    1.9094   -3.6495 C   0  0  0  0  0  0  0  0  0  0  0  0
   -4.5655    1.7803   -3.5161 C   0  0  0  0  0  0  0  0  0  0  0  0
   -6.1906    3.2975   -3.8332 C   0  0  0  0  0  0  0  0  0  0  0  0
   -7.0294    0.9708   -3.6416 C   0  0  0  0  0  0  0  0  0  0  0  0
   -3.7178    0.5905   -3.3116 C   0  0  0  0  0  0  0  0  0  0  0  0
   -4.0286    3.0594   -3.6643 C   0  0  0  0  0  0  0  0  0  0  0  0
   -5.0200    3.9525   -3.8404 N   0  0  0  0  0  0  0  0  0  0  0  0
   -7.5015    3.8348   -3.9923 C   0  0  0  0  0  0  0  0  0  0  0  0
   -8.3457    1.4937   -3.8040 C   0  0  0  0  0  0  0  0  0  0  0  0
   -3.4976    0.0494   -1.8757 C   0  0  2  0  0  0  0  0  0  0  0  0
   -8.5741    2.8947   -3.9715 C   0  0  0  0  0  0  0  0  0  0  0  0
   -2.5492   -0.9661   -2.0059 N   0  0  0  0  0  0  0  0  0  0  0  0
   -4.6542   -0.4045   -1.1210 C   0  0  0  0  0  0  0  0  0  0  0  0
   -1.5127   -1.2340   -1.2726 C   0  0  0  0  0  0  0  0  0  0  0  0
   -4.6526   -0.2561    0.1771 N   0  0  0  0  0  0  0  0  0  0  0  0
   -5.5793   -0.9647   -1.6967 O   0  0  0  0  0  0  0  0  0  0  0  0
   -0.6384   -2.3225   -1.6657 C   0  0  2  0  0  0  0  0  0  0  0  0
   -1.2925   -0.6200   -0.2349 O   0  0  0  0  0  0  0  0  0  0  0  0
   -5.6314   -0.3747    1.1817 C   0  0  2  0  0  0  0  0  0  0  0  0
   -0.9638   -3.5257   -0.7491 C   0  0  0  0  0  0  0  0  0  0  0  0
    0.7077   -1.9438   -1.6087 N   0  0  0  0  0  0  0  0  0  0  0  0
   -5.0161   -0.2487    2.4965 C   0  0  0  0  0  0  0  0  0  0  0  0
   -6.4666   -1.6799    1.0678 C   0  0  0  0  0  0  0  0  0  0  0  0
   -0.3931   -4.8618   -0.9617 C   0  0  0  0  0  0  0  0  0  0  0  0
    1.6207   -1.8514   -2.5280 C   0  0  0  0  0  0  0  0  0  0  0  0
   -5.2512    0.8061    3.2305 N   0  0  0  0  0  0  0  0  0  0  0  0
   -4.2829   -1.1498    2.8933 O   0  0  0  0  0  0  0  0  0  0  0  0
   -7.8156   -1.7186    1.7951 C   0  0  0  0  0  0  0  0  0  0  0  0
    0.3954   -5.3849    0.1162 C   0  0  0  0  0  0  0  0  0  0  0  0
   -0.6678   -5.6287   -2.1456 C   0  0  0  0  0  0  0  0  0  0  0  0
    2.8612   -1.1882   -2.1577 C   0  0  2  0  0  0  0  0  0  0  0  0
    1.4509   -2.2670   -3.6690 O   0  0  0  0  0  0  0  0  0  0  0  0
   -5.0296    1.0984    4.5903 C   0  0  2  0  0  0  0  0  0  0  0  0
   -8.4058   -3.1163    1.5845 C   0  0  0  0  0  0  0  0  0  0  0  0
    0.9278   -6.7079    0.0147 C   0  0  0  0  0  0  0  0  0  0  0  0
   -0.1367   -6.9525   -2.2555 C   0  0  0  0  0  0  0  0  0  0  0  0
    2.7503    0.3005   -2.5837 C   0  0  0  0  0  0  0  0  0  0  0  0
    4.0536   -1.7317   -2.6641 N   0  0  0  0  0  0  0  0  0  0  0  0
   -5.4544    2.4494    4.9262 C   0  0  0  0  0  0  0  0  0  0  0  0
   -3.6123    0.7166    5.1084 C   0  0  2  0  0  0  0  0  0  0  0  0
   -9.7268   -3.2670    2.3421 C   0  0  0  0  0  0  0  0  0  0  0  0
    0.6478   -7.4625   -1.1703 C   0  0  0  0  0  0  0  0  0  0  0  0
    3.5471    1.4224   -2.0427 C   0  0  0  0  0  0  0  0  0  0  0  0
    4.5645   -2.9274   -2.6411 C   0  0  0  0  0  0  0  0  0  0  0  0
   -4.8528    3.5005    4.4589 N   0  0  0  0  0  0  0  0  0  0  0  0
   -6.3982    2.5265    5.7016 O   0  0  0  0  0  0  0  0  0  0  0  0
   -3.4651    0.6832    6.6373 C   0  0  0  0  0  0  0  0  0  0  0  0
   -2.5799    1.5187    4.5565 O   0  0  0  0  0  0  0  0  0  0  0  0
  -10.2376   -4.6260    2.1644 N   0  0  0  0  0  0  0  0  0  0  0  0
    3.2522    2.7097   -2.6041 C   0  0  0  0  0  0  0  0  0  0  0  0
    4.5485    1.2903   -1.0254 C   0  0  0  0  0  0  0  0  0  0  0  0
    5.9089   -3.1277   -3.1585 C   0  0  1  0  0  0  0  0  0  0  0  0
    3.9248   -3.8814   -2.2082 O   0  0  0  0  0  0  0  0  0  0  0  0
   -4.9837    4.8539    4.7738 C   0  0  1  0  0  0  0  0  0  0  0  0
    3.9610    3.8701   -2.1551 C   0  0  0  0  0  0  0  0  0  0  0  0
    5.2746    2.4288   -0.5585 C   0  0  0  0  0  0  0  0  0  0  0  0
    6.6424   -3.8784   -2.2400 N   0  0  0  0  0  0  0  0  0  0  0  0
    5.8822   -3.7983   -4.5517 C   0  0  0  0  0  0  0  0  0  0  0  0
   -3.5652    5.3810    5.1180 C   0  0  0  0  0  0  0  0  0  0  0  0
   -5.6292    5.6697    3.7428 C   0  0  0  0  0  0  0  0  0  0  0  0
    4.9586    3.6958   -1.1418 C   0  0  0  0  0  0  0  0  0  0  0  0
    7.8298   -3.7494   -1.7355 C   0  0  0  0  0  0  0  0  0  0  0  0
    7.0331   -3.7180   -5.4193 C   0  0  0  0  0  0  0  0  0  0  0  0
   -2.8107    4.8312    6.2568 C   0  0  0  0  0  0  0  0  0  0  0  0
   -6.2278    5.3165    2.6468 N   0  0  0  0  0  0  0  0  0  0  0  0
   -5.6870    6.8836    3.8896 O   0  0  0  0  0  0  0  0  0  0  0  0
    8.1344   -4.2622   -0.4096 C   0  0  1  0  0  0  0  0  0  0  0  0
    8.7419   -3.1766   -2.3146 O   0  0  0  0  0  0  0  0  0  0  0  0
    6.9501   -4.2763   -6.5628 N   0  0  0  0  0  0  0  0  0  0  0  0
    8.0789   -3.1449   -5.1522 O   0  0  0  0  0  0  0  0  0  0  0  0
   -1.5297    4.2595    5.9561 C   0  0  0  0  0  0  0  0  0  0  0  0
   -3.3125    4.8970    7.6025 C   0  0  0  0  0  0  0  0  0  0  0  0
   -6.7474    4.0962    2.2056 C   0  0  2  0  0  0  0  0  0  0  0  0
    7.4484   -3.5132    0.5612 N   0  0  0  0  0  0  0  0  0  0  0  0
    8.0451   -5.7969   -0.2538 C   0  0  0  0  0  0  0  0  0  0  0  0
   -0.7332    3.7247    7.0163 C   0  0  0  0  0  0  0  0  0  0  0  0
   -2.5239    4.3640    8.6698 C   0  0  0  0  0  0  0  0  0  0  0  0
   -5.8472    3.5455    1.1942 C   0  0  0  0  0  0  0  0  0  0  0  0
   -8.2497    4.3027    1.8439 C   0  0  2  0  0  0  0  0  0  0  0  0
    6.1899   -3.2439    0.7896 C   0  0  0  0  0  0  0  0  0  0  0  0
    9.2069   -6.5066   -0.9689 C   0  0  0  0  0  0  0  0  0  0  0  0
   -1.2514    3.7888    8.3502 C   0  0  0  0  0  0  0  0  0  0  0  0
   -4.5964    3.3268    1.5200 N   0  0  0  0  0  0  0  0  0  0  0  0
   -6.2408    3.2955    0.0604 O   0  0  0  0  0  0  0  0  0  0  0  0
   -9.1683    4.6569    3.0267 C   0  0  0  0  0  0  0  0  0  0  0  0
   -8.8253    3.1264    1.2898 O   0  0  0  0  0  0  0  0  0  0  0  0
    5.8348   -1.8632    1.1540 C   0  0  2  0  0  0  0  0  0  0  0  0
    5.3618   -4.1309    0.6180 O   0  0  0  0  0  0  0  0  0  0  0  0
    9.1296   -8.0267   -0.8096 C   0  0  0  0  0  0  0  0  0  0  0  0
   -3.4565    2.8812    0.8244 C   0  0  2  0  0  0  0  0  0  0  0  0
    4.3104   -1.5918    1.3893 C   0  0  0  0  0  0  0  0  0  0  0  0
    6.2911   -1.0179    0.1320 N   0  0  0  0  0  0  0  0  0  0  0  0
   10.2850   -8.6724   -1.5800 C   0  0  0  0  0  0  0  0  0  0  0  0
   -2.2267    2.7563    1.6041 C   0  0  0  0  0  0  0  0  0  0  0  0
   -3.1677    3.8086   -0.3800 C   0  0  0  0  0  0  0  0  0  0  0  0
    3.7776    0.0184    2.0464 S   0  0  0  0  0  0  0  0  0  0  0  0
    7.4714   -0.6698   -0.2944 C   0  0  0  0  0  0  0  0  0  0  0  0
   10.2425  -10.1248   -1.4156 N   0  0  0  0  0  0  0  0  0  0  0  0
   -1.2822    1.9094    1.2485 N   0  0  0  0  0  0  0  0  0  0  0  0
   -2.0371    3.5367    2.5308 O   0  0  0  0  0  0  0  0  0  0  0  0
   -2.9984    5.1784   -0.0282 O   0  0  0  0  0  0  0  0  0  0  0  0
    1.7041   -0.1097    2.2819 S   0  0  0  0  0  0  0  0  0  0  0  0
    7.4998   -0.2202   -1.6617 C   0  0  0  0  0  0  0  0  0  0  0  0
    8.4996   -0.7776    0.3612 O   0  0  0  0  0  0  0  0  0  0  0  0
    0.1084    2.1465    1.1634 C   0  0  1  0  0  0  0  0  0  0  0  0
    1.1066    0.9660    0.9499 C   0  0  0  0  0  0  0  0  0  0  0  0
    8.6921   -0.1028   -2.3705 N   0  0  0  0  0  0  0  0  0  0  0  0
    0.2931    3.0565    0.0485 C   0  0  0  0  0  0  0  0  0  0  0  0
    8.8363    0.1713   -3.6342 C   0  0  0  0  0  0  0  0  0  0  0  0
    0.5979    4.2152    0.2816 O   0  0  0  0  0  0  0  0  0  0  0  0
    0.0922    2.7555   -1.1221 O   0  0  0  0  0  0  0  0  0  0  0  0
   10.1856    0.3020   -4.1421 C   0  0  2  0  0  0  0  0  0  0  0  0
    7.8909    0.3016   -4.4079 O   0  0  0  0  0  0  0  0  0  0  0  0
   10.6980    1.7492   -4.0829 C   0  0  0  0  0  0  0  0  0  0  0  0
   10.3382   -0.1582   -5.5281 N   0  0  0  0  0  0  0  0  0  0  0  0
  1  2  1  0  0  0  0
  1  3  2  0  0  0  0
  1  4  1  0  0  0  0
  2  5  1  0  0  0  0
  2  6  2  0  0  0  0
  3  7  1  0  0  0  0
  3  8  1  0  0  0  0
  4  9  2  0  0  0  0
 10  5  1  0  0  0  0
  6  7  1  0  0  0  0
  8 11  2  0  0  0  0
  9 11  1  0  0  0  0
 10 12  1  0  0  0  0
 10 13  1  0  0  0  0
 12 14  1  0  0  0  0
 13 15  1  0  0  0  0
 13 16  2  0  0  0  0
 14 17  1  0  0  0  0
 14 18  2  0  0  0  0
 15 19  1  0  0  0  0
 17 20  1  0  0  0  0
 17 21  1  0  0  0  0
 19 22  1  0  0  0  0
 19 23  1  0  0  0  0
 20 24  1  0  0  0  0
 21 25  1  0  0  0  0
 22 26  1  0  0  0  0
 22 27  2  0  0  0  0
 23 28  1  0  0  0  0
 24 29  2  0  0  0  0
 24 30  1  0  0  0  0
 25 31  1  0  0  0  0
 25 32  2  0  0  0  0
 33 26  1  0  0  0  0
 28 34  1  0  0  0  0
 29 35  1  0  0  0  0
 30 36  2  0  0  0  0
 31 37  1  0  0  0  0
 31 38  1  0  0  0  0
 33 39  1  0  0  0  0
 33 40  1  0  0  0  0
 34 41  1  0  0  0  0
 35 42  2  0  0  0  0
 36 42  1  0  0  0  0
 37 43  1  0  0  0  0
 38 44  1  0  0  0  0
 39 45  1  0  0  0  0
 39 46  2  0  0  0  0
 40 47  1  0  0  0  0
 40 48  1  0  0  0  0
 41 49  1  0  0  0  0
 43 50  2  0  0  0  0
 43 51  1  0  0  0  0
 44 52  1  0  0  0  0
 44 53  2  0  0  0  0
 54 45  1  0  0  0  0
 50 55  1  0  0  0  0
 51 56  2  0  0  0  0
 52 57  1  0  0  0  0
 52 58  1  0  0  0  0
 54 59  1  0  0  0  0
 54 60  1  0  0  0  0
 55 61  2  0  0  0  0
 56 61  1  0  0  0  0
 57 62  1  0  0  0  0
 58 63  1  0  0  0  0
 59 64  1  0  0  0  0
 60 65  1  0  0  0  0
 60 66  2  0  0  0  0
 62 67  1  0  0  0  0
 62 68  2  0  0  0  0
 63 69  1  0  0  0  0
 63 70  2  0  0  0  0
 64 71  2  0  0  0  0
 64 72  1  0  0  0  0
 65 73  1  0  0  0  0
 67 74  1  0  0  0  0
 67 75  1  0  0  0  0
 71 76  1  0  0  0  0
 72 77  2  0  0  0  0
 73 78  1  0  0  0  0
 73 79  1  0  0  0  0
 74 80  1  0  0  0  0
 75 81  1  0  0  0  0
 76 82  2  0  0  0  0
 77 82  1  0  0  0  0
 78 83  1  0  0  0  0
 78 84  2  0  0  0  0
 79 85  1  0  0  0  0
 79 86  1  0  0  0  0
 80 87  1  0  0  0  0
 80 88  2  0  0  0  0
 81 89  1  0  0  0  0
 83 90  1  0  0  0  0
 87 91  1  0  0  0  0
 87 92  1  0  0  0  0
 89 93  1  0  0  0  0
 90 94  1  0  0  0  0
 90 95  1  0  0  0  0
 91 96  1  0  0  0  0
 92 97  1  0  0  0  0
 93 98  1  0  0  0  0
 94 99  1  0  0  0  0
 94100  2  0  0  0  0
 95101  1  0  0  0  0
 96102  1  0  0  0  0
 97103  1  0  0  0  0
 97104  2  0  0  0  0
 99105  1  0  0  0  0
102106  1  0  0  0  0
103107  1  0  0  0  0
105108  1  0  0  0  0
105106  1  0  0  0  0
107109  1  0  0  0  0
108110  1  0  0  0  0
108111  2  0  0  0  0
109112  1  0  0  0  0
109113  2  0  0  0  0
112114  1  0  0  0  0
112115  1  0  0  0  0
M  END

> <StdInChI>
InChI=1S/C76H104N18O19S2/c1-41(79)64(100)82-37-61(99)83-58-39-114-115-40-59(76(112)113)92-72(108)57(38-95)91-75(111)63(43(3)97)94-71(107)54(33-46-23-11-6-12-24-46)90-74(110)62(42(2)96)93-66(102)51(28-16-18-30-78)84-69(105)55(34-47-36-81-49-26-14-13-25-48(47)49)88-68(104)53(32-45-21-9-5-10-22-45)86-67(103)52(31-44-19-7-4-8-20-44)87-70(106)56(35-60(80)98)89-65(101)50(85-73(58)109)27-15-17-29-77/h4-14,19-26,36,41-43,50-59,62-63,81,95-97H,15-18,27-35,37-40,77-79H2,1-3H3,(H2,80,98)(H,82,100)(H,83,99)(H,84,105)(H,85,109)(H,86,103)(H,87,106)(H,88,104)(H,89,101)(H,90,110)(H,91,111)(H,92,108)(H,93,102)(H,94,107)(H,112,113)/t41-,42-,43-,50-,51-,52-,53-,54-,55-,56-,57-,58-,59-,62-,63-/m0/s1

> <StdInChIKey>
NHXLMOGPVYXJNR-ODANEKKGSA-N

> <AuxInfo>
1/1/N:114,47,85,61,42,82,55,56,35,36,76,77,9,11,81,28,89,34,50,51,29,30,71,72,4,8,75,23,93,41,37,20,59,5,58,6,103,95,91,106,112,40,79,43,24,64,2,1,3,67,19,31,17,54,10,52,90,87,105,63,97,33,73,109,62,22,25,14,13,44,60,94,80,39,78,108,98,49,115,69,7,107,92,15,74,21,38,12,57,45,83,99,26,65,101,48,86,70,104,113,68,27,32,18,16,53,66,100,88,46,84,110,111,96,102/E:(7,8)(9,10)(11,12)(19,20)(21,22)(23,24)(112,113)/it:im/rA:115cCCCCCCNCCCCNCCNOCOCCNCCCCNOCCCCOCCCCCNCCCCCCNOCONCCCOCCCNCCCCCCCNOCONOCCCNCCCCCCCCNOCOCOCCCNCCCSCNNOOSCOCCNCCOOCOCN/rB:s1;d1;s1;s2;d2;s3s6;s3;d4;s5;d8s9;s10;s10;s12;s13;d13;s14;d14;s15;s17;s17;s19;s19;s20;s21;s22;d22;s23;d24;s24;s25;d25;s26;s28;s29;d30;s31;s31;s33;s33;s34;d35s36;s37;s38;s39;d39;s40;s40;s41;d43;s43;s44;d44;s45;s50;d51;s52;s52;s54;s54;d55s56;s57;s58;s59;s60;d60;s62;d62;s63;d63;d64;s64;s65;s67;s67;s71;d72;s73;s73;s74;s75;d76s77;s78;d78;s79;s79;s80;d80;s81;s83;s87;s87;s89;s90;s90;s91;s92;s93;s94;d94;s95;s96;s97;d97;s99;s102s105;s103;s105;s107;s108;d108;s109;d109;s112;s112;/rC:-5.9502,1.9094,-3.6495;-4.5655,1.7803,-3.5161;-6.1906,3.2975,-3.8332;-7.0294,.9708,-3.6416;-3.7178,.5905,-3.3116;-4.0286,3.0594,-3.6643;-5.02,3.9525,-3.8404;-7.5015,3.8348,-3.9923;-8.3457,1.4937,-3.804;-3.4976,.0494,-1.8757;-8.5741,2.8947,-3.9715;-2.5492,-.9661,-2.0059;-4.6542,-.4045,-1.121;-1.5127,-1.234,-1.2726;-4.6526,-.2561,.1771;-5.5793,-.9647,-1.6967;-.6384,-2.3225,-1.6657;-1.2925,-.62,-.2349;-5.6314,-.3747,1.1817;-.9638,-3.5257,-.7491;.7077,-1.9438,-1.6087;-5.0161,-.2487,2.4965;-6.4666,-1.6799,1.0678;-.3931,-4.8618,-.9617;1.6207,-1.8514,-2.528;-5.2512,.8061,3.2305;-4.2829,-1.1498,2.8933;-7.8156,-1.7186,1.7951;.3954,-5.3849,.1162;-.6678,-5.6287,-2.1456;2.8612,-1.1882,-2.1577;1.4509,-2.267,-3.669;-5.0296,1.0984,4.5903;-8.4058,-3.1163,1.5845;.9278,-6.7079,.0147;-.1367,-6.9525,-2.2555;2.7503,.3005,-2.5837;4.0536,-1.7317,-2.6641;-5.4544,2.4494,4.9262;-3.6123,.7166,5.1084;-9.7268,-3.267,2.3421;.6478,-7.4625,-1.1703;3.5471,1.4224,-2.0427;4.5645,-2.9274,-2.6411;-4.8528,3.5005,4.4589;-6.3982,2.5265,5.7016;-3.4651,.6832,6.6373;-2.5799,1.5187,4.5565;-10.2376,-4.626,2.1644;3.2522,2.7097,-2.6041;4.5485,1.2903,-1.0254;5.9089,-3.1277,-3.1585;3.9248,-3.8814,-2.2082;-4.9837,4.8539,4.7738;3.961,3.8701,-2.1551;5.2746,2.4288,-.5585;6.6424,-3.8784,-2.24;5.8822,-3.7983,-4.5517;-3.5652,5.381,5.118;-5.6292,5.6697,3.7428;4.9586,3.6958,-1.1418;7.8298,-3.7494,-1.7355;7.0331,-3.718,-5.4193;-2.8107,4.8312,6.2568;-6.2278,5.3165,2.6468;-5.687,6.8836,3.8896;8.1344,-4.2622,-.4096;8.7419,-3.1766,-2.3146;6.9501,-4.2763,-6.5628;8.0789,-3.1449,-5.1522;-1.5297,4.2595,5.9561;-3.3125,4.897,7.6025;-6.7474,4.0962,2.2056;7.4484,-3.5132,.5612;8.0451,-5.7969,-.2538;-.7332,3.7247,7.0163;-2.5239,4.364,8.6698;-5.8472,3.5455,1.1942;-8.2497,4.3027,1.8439;6.1899,-3.2439,.7896;9.2069,-6.5066,-.9689;-1.2514,3.7888,8.3502;-4.5964,3.3268,1.52;-6.2408,3.2955,.0604;-9.1683,4.6569,3.0267;-8.8253,3.1264,1.2898;5.8348,-1.8632,1.154;5.3618,-4.1309,.618;9.1296,-8.0267,-.8096;-3.4565,2.8812,.8244;4.3104,-1.5918,1.3893;6.2911,-1.0179,.132;10.285,-8.6724,-1.58;-2.2267,2.7563,1.6041;-3.1677,3.8086,-.38;3.7776,.0184,2.0464;7.4714,-.6698,-.2944;10.2425,-10.1248,-1.4156;-1.2822,1.9094,1.2485;-2.0371,3.5367,2.5308;-2.9984,5.1784,-.0282;1.7041,-.1097,2.2819;7.4998,-.2202,-1.6617;8.4996,-.7776,.3612;.1084,2.1465,1.1634;1.1066,.966,.9499;8.6921,-.1028,-2.3705;.2931,3.0565,.0485;8.8363,.1713,-3.6342;.5979,4.2152,.2816;.0922,2.7555,-1.1221;10.1856,.302,-4.1421;7.8909,.3016,-4.4079;10.698,1.7492,-4.0829;10.3382,-.1582,-5.5281;

> <Formula>
C76 H104 N18 O19 S2

> <Mw>
1637.878

> <SMILES>
C12C=CC=CC=1NC=C2C[C@H]1C(=O)N[C@@H](CCCCN)C(=O)N[C@@H]([C@@H](O)C)C(=O)N[C@H](C(=O)N[C@@H]([C@@H](O)C)C(=O)N[C@@H](CO)C(=O)N[C@@H](CSSC[C@H](NC(=O)CNC(=O)[C@@H](N)C)C(=O)N[C@@H](CCCCN)C(=O)N[C@@H](CC(=O)N)C(=O)N[C@@H](CC2C=CC=CC=2)C(=O)N[C@@H](CC2C=CC=CC=2)C(=O)N1)C(=O)O)CC1C=CC=CC=1

> <CSID>
16736969

$$$$
