@<TRIPOS>MOLECULE
*****
 115 120 0 0 0
SMALL
GASTEIGER

@<TRIPOS>ATOM
      1 CD2        -5.9502    1.9094   -3.6495 C.ar    8  TRP8        0.0152
      2 CG         -4.5655    1.7803   -3.5161 C.ar    8  TRP8        0.0006
      3 CE2        -6.1906    3.2975   -3.8332 C.ar    8  TRP8        0.0810
      4 CE3        -7.0294    0.9708   -3.6416 C.ar    8  TRP8        0.0012
      5 CB         -3.7178    0.5905   -3.3116 C.3     8  TRP8        0.0590
      6 CD1        -4.0286    3.0594   -3.6643 C.ar    8  TRP8        0.0946
      7 NE1        -5.0200    3.9525   -3.8404 N.ar    8  TRP8       -0.2442
      8 CZ2        -7.5015    3.8348   -3.9923 C.ar    8  TRP8        0.0191
      9 CZ3        -8.3457    1.4937   -3.8040 C.ar    8  TRP8        0.0001
     10 CA         -3.4976    0.0494   -1.8757 C.3     8  TRP8        0.1771
     11 CH2        -8.5741    2.8947   -3.9715 C.ar    8  TRP8        0.0015
     12 N          -2.5492   -0.9661   -2.0059 N.am    8  TRP8       -0.1960
     13 C          -4.6542   -0.4045   -1.1210 C.2     8  TRP8        0.2620
     14 C          -1.5127   -1.2340   -1.2726 C.2     7  PHE7        0.2620
     15 N          -4.6526   -0.2561    0.1771 N.am    9  LYS9       -0.1963
     16 O          -5.5793   -0.9647   -1.6967 O.2     8  TRP8       -0.2715
     17 CA         -0.6384   -2.3225   -1.6657 C.3     7  PHE7        0.1771
     18 O          -1.2925   -0.6200   -0.2349 O.2     7  PHE7       -0.2715
     19 CA         -5.6314   -0.3747    1.1817 C.3     9  LYS9        0.1728
     20 CB         -0.9638   -3.5257   -0.7491 C.3     7  PHE7        0.0574
     21 N           0.7077   -1.9438   -1.6087 N.am    7  PHE7       -0.1960
     22 C          -5.0161   -0.2487    2.4965 C.2     9  LYS9        0.2617
     23 CB         -6.4666   -1.6799    1.0678 C.3     9  LYS9        0.0311
     24 CG         -0.3931   -4.8618   -0.9617 C.ar    7  PHE7       -0.0200
     25 C           1.6207   -1.8514   -2.5280 C.2     6  PHE6        0.2620
     26 N          -5.2512    0.8061    3.2305 N.am   10  THR10      -0.1937
     27 O          -4.2829   -1.1498    2.8933 O.2     9  LYS9       -0.2715
     28 CG         -7.8156   -1.7186    1.7951 C.3     9  LYS9        0.0038
     29 CD1         0.3954   -5.3849    0.1162 C.ar    7  PHE7       -0.0042
     30 CD2        -0.6678   -5.6287   -2.1456 C.ar    7  PHE7       -0.0042
     31 CA          2.8612   -1.1882   -2.1577 C.3     6  PHE6        0.1771
     32 O           1.4509   -2.2670   -3.6690 O.2     6  PHE6       -0.2715
     33 CA         -5.0296    1.0984    4.5903 C.3    10  THR10       0.2028
     34 CD         -8.4058   -3.1163    1.5845 C.3     9  LYS9        0.0206
     35 CE1         0.9278   -6.7079    0.0147 C.ar    7  PHE7       -0.0003
     36 CE2        -0.1367   -6.9525   -2.2555 C.ar    7  PHE7       -0.0003
     37 CB          2.7503    0.3005   -2.5837 C.3     6  PHE6        0.0574
     38 N           4.0536   -1.7317   -2.6641 N.am    6  PHE6       -0.1960
     39 C          -5.4544    2.4494    4.9262 C.2    10  THR10       0.2642
     40 CB         -3.6123    0.7166    5.1084 C.3    10  THR10       0.1808
     41 CE         -9.7268   -3.2670    2.3421 C.3     9  LYS9        0.1093
     42 CZ          0.6478   -7.4625   -1.1703 C.ar    7  PHE7       -0.0000
     43 CG          3.5471    1.4224   -2.0427 C.ar    6  PHE6       -0.0200
     44 C           4.5645   -2.9274   -2.6411 C.2     5  ASN5        0.2621
     45 N          -4.8528    3.5005    4.4589 N.am   11  PHE11      -0.1959
     46 O          -6.3982    2.5265    5.7016 O.2    10  THR10      -0.2714
     47 CG2        -3.4651    0.6832    6.6373 C.3    10  THR10       0.0379
     48 OG1        -2.5799    1.5187    4.5565 O.3    10  THR10      -0.2208
     49 NZ        -10.2376   -4.6260    2.1644 N.3     9  LYS9       -0.1314
     50 CD1         3.2522    2.7097   -2.6041 C.ar    6  PHE6       -0.0042
     51 CD2         4.5485    1.2903   -1.0254 C.ar    6  PHE6       -0.0042
     52 CA          5.9089   -3.1277   -3.1585 C.3     5  ASN5        0.1819
     53 O           3.9248   -3.8814   -2.2082 O.2     5  ASN5       -0.2715
     54 CA         -4.9837    4.8539    4.7738 C.3    11  PHE11       0.1771
     55 CE1         3.9610    3.8701   -2.1551 C.ar    6  PHE6       -0.0003
     56 CE2         5.2746    2.4288   -0.5585 C.ar    6  PHE6       -0.0003
     57 N           6.6424   -3.8784   -2.2400 N.am    5  ASN5       -0.1958
     58 CB          5.8822   -3.7983   -4.5517 C.3     5  ASN5        0.1195
     59 CB         -3.5652    5.3810    5.1180 C.3    11  PHE11       0.0574
     60 C          -5.6292    5.6697    3.7428 C.2    11  PHE11       0.2620
     61 CZ          4.9586    3.6958   -1.1418 C.ar    6  PHE6       -0.0000
     62 C           7.8298   -3.7494   -1.7355 C.2     4  LYS4        0.2616
     63 CG          7.0331   -3.7180   -5.4193 C.2     5  ASN5        0.2630
     64 CG         -2.8107    4.8312    6.2568 C.ar   11  PHE11      -0.0200
     65 N          -6.2278    5.3165    2.6468 N.am   12  THR12      -0.1937
     66 O          -5.6870    6.8836    3.8896 O.2    11  PHE11      -0.2715
     67 CA          8.1344   -4.2622   -0.4096 C.3     4  LYS4        0.1728
     68 O           8.7419   -3.1766   -2.3146 O.2     4  LYS4       -0.2715
     69 ND2         6.9501   -4.2763   -6.5628 N.am    5  ASN5       -0.0877
     70 OD1         8.0789   -3.1449   -5.1522 O.2     5  ASN5       -0.2716
     71 CD1        -1.5297    4.2595    5.9561 C.ar   11  PHE11      -0.0042
     72 CD2        -3.3125    4.8970    7.6025 C.ar   11  PHE11      -0.0042
     73 CA         -6.7474    4.0962    2.2056 C.3    12  THR12       0.2028
     74 N           7.4484   -3.5132    0.5612 N.am    4  LYS4       -0.1963
     75 CB          8.0451   -5.7969   -0.2538 C.3     4  LYS4        0.0311
     76 CE1        -0.7332    3.7247    7.0163 C.ar   11  PHE11      -0.0003
     77 CE2        -2.5239    4.3640    8.6698 C.ar   11  PHE11      -0.0003
     78 C          -5.8472    3.5455    1.1942 C.2    12  THR12       0.2643
     79 CB         -8.2497    4.3027    1.8439 C.3    12  THR12       0.1808
     80 C           6.1899   -3.2439    0.7896 C.2     3  CYS3        0.2625
     81 CG          9.2069   -6.5066   -0.9689 C.3     4  LYS4        0.0038
     82 CZ         -1.2514    3.7888    8.3502 C.ar   11  PHE11      -0.0000
     83 N          -4.5964    3.3268    1.5200 N.am   13  SER13      -0.1935
     84 O          -6.2408    3.2955    0.0604 O.2    12  THR12      -0.2714
     85 CG2        -9.1683    4.6569    3.0267 C.3    12  THR12       0.0379
     86 OG1        -8.8253    3.1264    1.2898 O.3    12  THR12      -0.2208
     87 CA          5.8348   -1.8632    1.1540 C.3     3  CYS3        0.1843
     88 O           5.3618   -4.1309    0.6180 O.2     3  CYS3       -0.2714
     89 CD          9.1296   -8.0267   -0.8096 C.3     4  LYS4        0.0206
     90 CA         -3.4565    2.8812    0.8244 C.3    13  SER13       0.2055
     91 CB          4.3104   -1.5918    1.3893 C.3     3  CYS3        0.0997
     92 N           6.2911   -1.0179    0.1320 N.am    3  CYS3       -0.1953
     93 CE         10.2850   -8.6724   -1.5800 C.3     4  LYS4        0.1093
     94 C          -2.2267    2.7563    1.6041 C.2    13  SER13       0.2644
     95 CB         -3.1677    3.8086   -0.3800 C.3    13  SER13       0.2130
     96 SG          3.7776    0.0184    2.0464 S.3     3  CYS3       -0.0797
     97 C           7.4714   -0.6698   -0.2944 C.2     2  GLY2        0.2639
     98 NZ         10.2425  -10.1248   -1.4156 N.3     4  LYS4       -0.1314
     99 N          -1.2822    1.9094    1.2485 N.am   14  CYS14      -0.1931
    100 O          -2.0371    3.5367    2.5308 O.2    13  SER13      -0.2714
    101 OG         -2.9984    5.1784   -0.0282 O.3    13  SER13      -0.2179
    102 SG          1.7041   -0.1097    2.2819 S.3    14  CYS14      -0.0797
    103 CA          7.4998   -0.2202   -1.6617 C.3     2  GLY2        0.2014
    104 O           8.4996   -0.7776    0.3612 O.2     2  GLY2       -0.2714
    105 CA          0.1084    2.1465    1.1634 C.3    14  CYS14       0.2093
    106 CB          1.1066    0.9660    0.9499 C.3    14  CYS14       0.1019
    107 N           8.6921   -0.1028   -2.3705 N.am    2  GLY2       -0.1942
    108 C           0.2931    3.0565    0.0485 C.2    14  CYS14       0.3851
    109 C           8.8363    0.1713   -3.6342 C.2     1  ALA1        0.2593
    110 O           0.5979    4.2152    0.2816 O.co2  14  CYS14      -0.2437
    111 OXT         0.0922    2.7555   -1.1221 O.co2  14  CYS14      -0.2437
    112 CA         10.1856    0.3020   -4.1421 C.3     1  ALA1        0.1694
    113 O           7.8909    0.3016   -4.4079 O.2     1  ALA1       -0.2718
    114 CB         10.6980    1.7492   -4.0829 C.3     1  ALA1        0.0304
    115 N          10.3382   -0.1582   -5.5281 N.3     1  ALA1       -0.1231
@<TRIPOS>BOND
     1     1     2   ar
     2     1     3   ar
     3     1     4   ar
     4     2     5    1
     5     2     6   ar
     6     3     7   ar
     7     3     8   ar
     8     4     9   ar
     9    10     5    1
    10     6     7   ar
    11     8    11   ar
    12     9    11   ar
    13    10    12    1
    14    10    13    1
    15    12    14   am
    16    13    15   am
    17    13    16    2
    18    14    17    1
    19    14    18    2
    20    15    19    1
    21    17    20    1
    22    17    21    1
    23    19    22    1
    24    19    23    1
    25    20    24    1
    26    21    25   am
    27    22    26   am
    28    22    27    2
    29    23    28    1
    30    24    29   ar
    31    24    30   ar
    32    25    31    1
    33    25    32    2
    34    33    26    1
    35    28    34    1
    36    29    35   ar
    37    30    36   ar
    38    31    37    1
    39    31    38    1
    40    33    39    1
    41    33    40    1
    42    34    41    1
    43    35    42   ar
    44    36    42   ar
    45    37    43    1
    46    38    44   am
    47    39    45   am
    48    39    46    2
    49    40    47    1
    50    40    48    1
    51    41    49    1
    52    43    50   ar
    53    43    51   ar
    54    44    52    1
    55    44    53    2
    56    54    45    1
    57    50    55   ar
    58    51    56   ar
    59    52    57    1
    60    52    58    1
    61    54    59    1
    62    54    60    1
    63    55    61   ar
    64    56    61   ar
    65    57    62   am
    66    58    63    1
    67    59    64    1
    68    60    65   am
    69    60    66    2
    70    62    67    1
    71    62    68    2
    72    63    69   am
    73    63    70    2
    74    64    71   ar
    75    64    72   ar
    76    65    73    1
    77    67    74    1
    78    67    75    1
    79    71    76   ar
    80    72    77   ar
    81    73    78    1
    82    73    79    1
    83    74    80   am
    84    75    81    1
    85    76    82   ar
    86    77    82   ar
    87    78    83   am
    88    78    84    2
    89    79    85    1
    90    79    86    1
    91    80    87    1
    92    80    88    2
    93    81    89    1
    94    83    90    1
    95    87    91    1
    96    87    92    1
    97    89    93    1
    98    90    94    1
    99    90    95    1
   100    91    96    1
   101    92    97   am
   102    93    98    1
   103    94    99   am
   104    94   100    2
   105    95   101    1
   106    96   102    1
   107    97   103    1
   108    97   104    2
   109    99   105    1
   110   102   106    1
   111   103   107    1
   112   105   108    1
   113   105   106    1
   114   107   109   am
   115   108   110   ar
   116   108   111   ar
   117   109   112    1
   118   109   113    2
   119   112   114    1
   120   112   115    1
