@<TRIPOS>MOLECULE
7172
 25 25 0 0 0
SMALL
GASTEIGER

@<TRIPOS>ATOM
      1 O           0.1655   -1.8584   -1.4252 O.3     1  UNL1       -0.3859
      2 O           2.2648    4.0211   -0.6870 O.3     1  UNL1       -0.5068
      3 N          -1.5119   -2.5179    0.8211 N.3     1  UNL1       -0.3162
      4 C          -0.5186   -0.8173   -0.7248 C.3     1  UNL1        0.0926
      5 C          -0.7765   -1.2409    0.7403 C.3     1  UNL1        0.0258
      6 C           0.2259    0.4715   -0.7468 C.ar    1  UNL1       -0.0177
      7 C           1.6399    0.4969   -0.7182 C.ar    1  UNL1       -0.0526
      8 C          -0.4670    1.7052   -0.7356 C.ar    1  UNL1       -0.0526
      9 C           2.3426    1.7139   -0.7002 C.ar    1  UNL1       -0.0198
     10 C           0.2312    2.9271   -0.7107 C.ar    1  UNL1       -0.0198
     11 C           1.6389    2.9328   -0.6997 C.ar    1  UNL1        0.1169
     12 C          -1.7965   -2.9843    2.1897 C.3     1  UNL1       -0.0157
     13 H          -1.4785   -0.7097   -1.2393 H       1  UNL1        0.0656
     14 H          -1.3572   -0.4620    1.2445 H       1  UNL1        0.0453
     15 H           0.1807   -1.3466    1.2601 H       1  UNL1        0.0453
     16 H           2.1787   -0.3726   -0.7020 H       1  UNL1        0.0622
     17 H          -1.4905    1.7279   -0.7340 H       1  UNL1        0.0622
     18 H          -2.4103   -2.3794    0.3530 H       1  UNL1        0.1217
     19 H           3.3655    1.7025   -0.6833 H       1  UNL1        0.0654
     20 H          -0.2923    3.8063   -0.6975 H       1  UNL1        0.0654
     21 H           0.3415   -1.5016   -2.3216 H       1  UNL1        0.2103
     22 H          -2.3416   -3.9257    2.1306 H       1  UNL1        0.0388
     23 H          -0.8698   -3.1562    2.7408 H       1  UNL1        0.0388
     24 H          -2.4102   -2.2611    2.7304 H       1  UNL1        0.0388
     25 H           3.1454    4.0288   -0.6848 H       1  UNL1        0.2921
@<TRIPOS>BOND
     1     1     4    1
     2     1    21    1
     3     2    11    1
     4     2    25    1
     5     3     5    1
     6     3    12    1
     7     3    18    1
     8     4     5    1
     9     4     6    1
    10     4    13    1
    11     5    14    1
    12     5    15    1
    13     6     7   ar
    14     6     8   ar
    15     7     9   ar
    16     7    16    1
    17     8    10   ar
    18     8    17    1
    19     9    11   ar
    20     9    19    1
    21    10    11   ar
    22    10    20    1
    23    12    22    1
    24    12    23    1
    25    12    24    1
