@<TRIPOS>MOLECULE
1150
 24 25 0 0 0
SMALL
GASTEIGER

@<TRIPOS>ATOM
      1 N           0.0626    2.4404   -0.3857 N.ar    1  UNL1       -0.3604
      2 N           2.8919   -2.4314    1.0649 N.3     1  UNL1       -0.3297
      3 C           0.7931    0.3277   -0.4013 C.ar    1  UNL1       -0.0212
      4 C          -0.5995    0.3170   -0.3924 C.ar    1  UNL1        0.0029
      5 C           1.6888   -0.8425   -0.3838 C.3     1  UNL1       -0.0133
      6 C          -1.0229    1.6502   -0.3871 C.ar    1  UNL1        0.0467
      7 C           1.1648    1.6730   -0.3916 C.ar    1  UNL1        0.0059
      8 C           1.9986   -1.2705    1.0656 C.3     1  UNL1       -0.0029
      9 C          -1.5287   -0.7403   -0.3832 C.ar    1  UNL1       -0.0523
     10 C          -2.3925    1.9668   -0.3816 C.ar    1  UNL1       -0.0378
     11 C          -2.9029   -0.4313   -0.3801 C.ar    1  UNL1       -0.0611
     12 C          -3.3320    0.9137   -0.3804 C.ar    1  UNL1       -0.0598
     13 H           2.6155   -0.6068   -0.9123 H       1  UNL1        0.0326
     14 H           1.2222   -1.6725   -0.9209 H       1  UNL1        0.0326
     15 H           2.1249    2.0239   -0.3841 H       1  UNL1        0.0810
     16 H           0.0557    3.4106   -0.3786 H       1  UNL1        0.1653
     17 H           1.0796   -1.5312    1.5980 H       1  UNL1        0.0425
     18 H           2.4911   -0.4581    1.6052 H       1  UNL1        0.0425
     19 H          -1.2193   -1.7146   -0.3789 H       1  UNL1        0.0624
     20 H          -2.7003    2.9411   -0.3791 H       1  UNL1        0.0638
     21 H          -3.5891   -1.1889   -0.3782 H       1  UNL1        0.0618
     22 H          -4.3318    1.1238   -0.3796 H       1  UNL1        0.0618
     23 H           3.0401   -2.7043    2.0380 H       1  UNL1        0.1182
     24 H           2.3901   -3.1957    0.6073 H       1  UNL1        0.1182
@<TRIPOS>BOND
     1     1     6   ar
     2     1     7   ar
     3     1    16    1
     4     2     8    1
     5     2    23    1
     6     2    24    1
     7     3     4   ar
     8     3     5    1
     9     3     7   ar
    10     4     6   ar
    11     4     9   ar
    12     5     8    1
    13     5    13    1
    14     5    14    1
    15     6    10   ar
    16     7    15    1
    17     8    17    1
    18     8    18    1
    19     9    11   ar
    20     9    19    1
    21    10    12   ar
    22    10    20    1
    23    11    12   ar
    24    11    21    1
    25    12    22    1
