@<TRIPOS>MOLECULE
*****
 62 61 0 0 0
SMALL
GASTEIGER

@<TRIPOS>ATOM
      1 C          10.6931   -0.9683   -0.3195 C.2     1  UNL1        0.3071
      2 O          10.7691    0.2485   -0.2517 O.2     1  UNL1       -0.2509
      3 C           5.0302   -4.2946    3.9005 C.2     1  UNL1       -0.0839
      4 C           5.0437   -4.9600    5.0667 C.2     1  UNL1       -0.0839
      5 C           5.9498   -6.9444    6.3941 C.2     1  UNL1       -0.0842
      6 C           5.0696   -1.6084    1.7882 C.2     1  UNL1       -0.0842
      7 C           3.8499   -4.5320    1.7091 C.2     1  UNL1       -0.0839
      8 C           3.5014   -3.4507    0.9894 C.2     1  UNL1       -0.0839
      9 C           6.4131   -1.6163    1.7850 C.2     1  UNL1       -0.0876
     10 C           7.0833   -6.4710    6.9416 C.2     1  UNL1       -0.0876
     11 O          11.7241   -1.8355   -0.1346 O.3     1  UNL1       -0.4634
     12 N          15.2473   -2.1279   -1.1579 N.3     1  UNL1       -0.3270
     13 C           5.0855   -4.8418    2.5000 C.3     1  UNL1       -0.0165
     14 C           4.1941   -2.1445    0.6957 C.3     1  UNL1       -0.0165
     15 C           5.0986   -6.4430    5.2602 C.3     1  UNL1       -0.0165
     16 C           9.4074   -1.7155   -0.5180 C.3     1  UNL1        0.0452
     17 C           7.2444   -2.1509    0.6545 C.3     1  UNL1       -0.0343
     18 C           7.8679   -5.2377    6.6011 C.3     1  UNL1       -0.0348
     19 C          13.9279   -2.5594   -0.7114 C.3     1  UNL1        0.0277
     20 C          12.9560   -1.3907   -0.7154 C.3     1  UNL1        0.1047
     21 C           8.7434   -1.9239    0.8410 C.3     1  UNL1       -0.0395
     22 C           8.6127   -5.3081    5.2631 C.3     1  UNL1       -0.0496
     23 C          10.0699   -3.2115    5.3483 C.3     1  UNL1       -0.0559
     24 C           8.8860   -3.9164    4.6827 C.3     1  UNL1       -0.0530
     25 C          11.3952   -3.5706    4.6925 C.3     1  UNL1       -0.0653
     26 H           8.7849   -1.1107   -1.1829 H       1  UNL1        0.0378
     27 H           9.5916   -2.6762   -1.0139 H       1  UNL1        0.0378
     28 H          12.7733   -1.0438   -1.7391 H       1  UNL1        0.0710
     29 H          13.3366   -0.5604   -0.1104 H       1  UNL1        0.0710
     30 H           9.1905   -2.7948    1.3361 H       1  UNL1        0.0273
     31 H           8.9320   -1.0607    1.4912 H       1  UNL1        0.0273
     32 H           4.9889   -3.2127    3.9780 H       1  UNL1        0.0572
     33 H           5.9794   -4.4633    1.9963 H       1  UNL1        0.0350
     34 H           5.2175   -5.9292    2.5068 H       1  UNL1        0.0350
     35 H           4.9673   -4.3560    5.9698 H       1  UNL1        0.0572
     36 H           4.0665   -6.7837    5.4486 H       1  UNL1        0.0350
     37 H           5.4297   -6.9583    4.3574 H       1  UNL1        0.0350
     38 H           5.5792   -7.8764    6.8268 H       1  UNL1        0.0572
     39 H           7.5077   -7.0629    7.7527 H       1  UNL1        0.0569
     40 H           3.1282   -5.3514    1.6990 H       1  UNL1        0.0572
     41 H           2.5370   -3.5314    0.4846 H       1  UNL1        0.0572
     42 H           4.5668   -1.1678    2.6524 H       1  UNL1        0.0572
     43 H           6.9269   -1.2266    2.6583 H       1  UNL1        0.0569
     44 H           3.4132   -1.3907    0.5140 H       1  UNL1        0.0350
     45 H           4.7353   -2.2413   -0.2509 H       1  UNL1        0.0350
     46 H           7.0668   -3.2235    0.5275 H       1  UNL1        0.0307
     47 H           6.9150   -1.6634   -0.2690 H       1  UNL1        0.0307
     48 H           7.2143   -4.3597    6.6481 H       1  UNL1        0.0307
     49 H           8.6085   -5.0920    7.3985 H       1  UNL1        0.0307
     50 H           9.5581   -5.8481    5.4010 H       1  UNL1        0.0268
     51 H           8.0387   -5.8816    4.5258 H       1  UNL1        0.0268
     52 H          15.1616   -1.6052   -2.0292 H       1  UNL1        0.1183
     53 H          15.6429   -1.4815   -0.4760 H       1  UNL1        0.1183
     54 H          13.5648   -3.3496   -1.3769 H       1  UNL1        0.0455
     55 H          14.0103   -2.9823    0.2955 H       1  UNL1        0.0455
     56 H           9.0627   -4.0102    3.6048 H       1  UNL1        0.0265
     57 H           7.9951   -3.2852    4.7808 H       1  UNL1        0.0265
     58 H           9.9256   -2.1256    5.2861 H       1  UNL1        0.0263
     59 H          10.1198   -3.4541    6.4157 H       1  UNL1        0.0263
     60 H          12.1996   -2.9434    5.0937 H       1  UNL1        0.0230
     61 H          11.6556   -4.6158    4.8876 H       1  UNL1        0.0230
     62 H          11.3591   -3.4164    3.6092 H       1  UNL1        0.0230
@<TRIPOS>BOND
     1     1     2    2
     2     1    11    1
     3     1    16    1
     4     3    13    1
     5     3     4    2
     6     4    15    1
     7     5    15    1
     8     5    10    2
     9     6     9    2
    10     6    14    1
    11     7     8    2
    12     7    13    1
    13     8    14    1
    14     9    17    1
    15    10    18    1
    16    11    20    1
    17    12    19    1
    18    16    21    1
    19    17    21    1
    20    18    22    1
    21    19    20    1
    22    22    24    1
    23    23    24    1
    24    23    25    1
    25    16    26    1
    26    16    27    1
    27    20    28    1
    28    20    29    1
    29    21    30    1
    30    21    31    1
    31     3    32    1
    32    13    33    1
    33    13    34    1
    34     4    35    1
    35    15    36    1
    36    15    37    1
    37     5    38    1
    38    10    39    1
    39     7    40    1
    40     8    41    1
    41     6    42    1
    42     9    43    1
    43    14    44    1
    44    14    45    1
    45    17    46    1
    46    17    47    1
    47    18    48    1
    48    18    49    1
    49    22    50    1
    50    22    51    1
    51    12    52    1
    52    12    53    1
    53    19    54    1
    54    19    55    1
    55    24    56    1
    56    24    57    1
    57    23    58    1
    58    23    59    1
    59    25    60    1
    60    25    61    1
    61    25    62    1
