
  1019              3D

 62 61  0  0  0  0  0  0  0  0999 V2000
   10.6931   -0.9683   -0.3195 C   0  0  0  0  0  0  0  0  0  0  0  0
   10.7691    0.2485   -0.2517 O   0  0  0  0  0  0  0  0  0  0  0  0
    5.0302   -4.2946    3.9005 C   0  0  0  0  0  0  0  0  0  0  0  0
    5.0437   -4.9600    5.0667 C   0  0  0  0  0  0  0  0  0  0  0  0
    5.9498   -6.9444    6.3941 C   0  0  0  0  0  0  0  0  0  0  0  0
    5.0696   -1.6084    1.7882 C   0  0  0  0  0  0  0  0  0  0  0  0
    3.8499   -4.5320    1.7091 C   0  0  0  0  0  0  0  0  0  0  0  0
    3.5014   -3.4507    0.9894 C   0  0  0  0  0  0  0  0  0  0  0  0
    6.4131   -1.6163    1.7850 C   0  0  0  0  0  0  0  0  0  0  0  0
    7.0833   -6.4710    6.9416 C   0  0  0  0  0  0  0  0  0  0  0  0
   11.7241   -1.8355   -0.1346 O   0  0  0  0  0  0  0  0  0  0  0  0
   15.2473   -2.1279   -1.1579 N   0  0  0  0  0  0  0  0  0  0  0  0
    5.0855   -4.8418    2.5000 C   0  0  0  0  0  0  0  0  0  0  0  0
    4.1941   -2.1445    0.6957 C   0  0  0  0  0  0  0  0  0  0  0  0
    5.0986   -6.4430    5.2602 C   0  0  0  0  0  0  0  0  0  0  0  0
    9.4074   -1.7155   -0.5180 C   0  0  0  0  0  0  0  0  0  0  0  0
    7.2444   -2.1509    0.6545 C   0  0  0  0  0  0  0  0  0  0  0  0
    7.8679   -5.2377    6.6011 C   0  0  0  0  0  0  0  0  0  0  0  0
   13.9279   -2.5594   -0.7114 C   0  0  0  0  0  0  0  0  0  0  0  0
   12.9560   -1.3907   -0.7154 C   0  0  0  0  0  0  0  0  0  0  0  0
    8.7434   -1.9239    0.8410 C   0  0  0  0  0  0  0  0  0  0  0  0
    8.6127   -5.3081    5.2631 C   0  0  0  0  0  0  0  0  0  0  0  0
   10.0699   -3.2115    5.3483 C   0  0  0  0  0  0  0  0  0  0  0  0
    8.8860   -3.9164    4.6827 C   0  0  0  0  0  0  0  0  0  0  0  0
   11.3952   -3.5706    4.6925 C   0  0  0  0  0  0  0  0  0  0  0  0
    8.7849   -1.1107   -1.1829 H   0  0  0  0  0  0  0  0  0  0  0  0
    9.5916   -2.6762   -1.0139 H   0  0  0  0  0  0  0  0  0  0  0  0
   12.7733   -1.0438   -1.7391 H   0  0  0  0  0  0  0  0  0  0  0  0
   13.3366   -0.5604   -0.1104 H   0  0  0  0  0  0  0  0  0  0  0  0
    9.1905   -2.7948    1.3361 H   0  0  0  0  0  0  0  0  0  0  0  0
    8.9320   -1.0607    1.4912 H   0  0  0  0  0  0  0  0  0  0  0  0
    4.9889   -3.2127    3.9780 H   0  0  0  0  0  0  0  0  0  0  0  0
    5.9794   -4.4633    1.9963 H   0  0  0  0  0  0  0  0  0  0  0  0
    5.2175   -5.9292    2.5068 H   0  0  0  0  0  0  0  0  0  0  0  0
    4.9673   -4.3560    5.9698 H   0  0  0  0  0  0  0  0  0  0  0  0
    4.0665   -6.7837    5.4486 H   0  0  0  0  0  0  0  0  0  0  0  0
    5.4297   -6.9583    4.3574 H   0  0  0  0  0  0  0  0  0  0  0  0
    5.5792   -7.8764    6.8268 H   0  0  0  0  0  0  0  0  0  0  0  0
    7.5077   -7.0629    7.7527 H   0  0  0  0  0  0  0  0  0  0  0  0
    3.1282   -5.3514    1.6990 H   0  0  0  0  0  0  0  0  0  0  0  0
    2.5370   -3.5314    0.4846 H   0  0  0  0  0  0  0  0  0  0  0  0
    4.5668   -1.1678    2.6524 H   0  0  0  0  0  0  0  0  0  0  0  0
    6.9269   -1.2266    2.6583 H   0  0  0  0  0  0  0  0  0  0  0  0
    3.4132   -1.3907    0.5140 H   0  0  0  0  0  0  0  0  0  0  0  0
    4.7353   -2.2413   -0.2509 H   0  0  0  0  0  0  0  0  0  0  0  0
    7.0668   -3.2235    0.5275 H   0  0  0  0  0  0  0  0  0  0  0  0
    6.9150   -1.6634   -0.2690 H   0  0  0  0  0  0  0  0  0  0  0  0
    7.2143   -4.3597    6.6481 H   0  0  0  0  0  0  0  0  0  0  0  0
    8.6085   -5.0920    7.3985 H   0  0  0  0  0  0  0  0  0  0  0  0
    9.5581   -5.8481    5.4010 H   0  0  0  0  0  0  0  0  0  0  0  0
    8.0387   -5.8816    4.5258 H   0  0  0  0  0  0  0  0  0  0  0  0
   15.1616   -1.6052   -2.0292 H   0  0  0  0  0  0  0  0  0  0  0  0
   15.6429   -1.4815   -0.4760 H   0  0  0  0  0  0  0  0  0  0  0  0
   13.5648   -3.3496   -1.3769 H   0  0  0  0  0  0  0  0  0  0  0  0
   14.0103   -2.9823    0.2955 H   0  0  0  0  0  0  0  0  0  0  0  0
    9.0627   -4.0102    3.6048 H   0  0  0  0  0  0  0  0  0  0  0  0
    7.9951   -3.2852    4.7808 H   0  0  0  0  0  0  0  0  0  0  0  0
    9.9256   -2.1256    5.2861 H   0  0  0  0  0  0  0  0  0  0  0  0
   10.1198   -3.4541    6.4157 H   0  0  0  0  0  0  0  0  0  0  0  0
   12.1996   -2.9434    5.0937 H   0  0  0  0  0  0  0  0  0  0  0  0
   11.6556   -4.6158    4.8876 H   0  0  0  0  0  0  0  0  0  0  0  0
   11.3591   -3.4164    3.6092 H   0  0  0  0  0  0  0  0  0  0  0  0
  1  2  2  0  0  0  0
  1 11  1  0  0  0  0
  1 16  1  0  0  0  0
  3 13  1  0  0  0  0
  3  4  2  0  0  0  0
  4 15  1  0  0  0  0
  5 15  1  0  0  0  0
  5 10  2  0  0  0  0
  6  9  2  0  0  0  0
  6 14  1  0  0  0  0
  7  8  2  0  0  0  0
  7 13  1  0  0  0  0
  8 14  1  0  0  0  0
  9 17  1  0  0  0  0
 10 18  1  0  0  0  0
 11 20  1  0  0  0  0
 12 19  1  0  0  0  0
 16 21  1  0  0  0  0
 17 21  1  0  0  0  0
 18 22  1  0  0  0  0
 19 20  1  0  0  0  0
 22 24  1  0  0  0  0
 23 24  1  0  0  0  0
 23 25  1  0  0  0  0
 16 26  1  0  0  0  0
 16 27  1  0  0  0  0
 20 28  1  0  0  0  0
 20 29  1  0  0  0  0
 21 30  1  0  0  0  0
 21 31  1  0  0  0  0
  3 32  1  0  0  0  0
 13 33  1  0  0  0  0
 13 34  1  0  0  0  0
  4 35  1  0  0  0  0
 15 36  1  0  0  0  0
 15 37  1  0  0  0  0
  5 38  1  0  0  0  0
 10 39  1  0  0  0  0
  7 40  1  0  0  0  0
  8 41  1  0  0  0  0
  6 42  1  0  0  0  0
  9 43  1  0  0  0  0
 14 44  1  0  0  0  0
 14 45  1  0  0  0  0
 17 46  1  0  0  0  0
 17 47  1  0  0  0  0
 18 48  1  0  0  0  0
 18 49  1  0  0  0  0
 22 50  1  0  0  0  0
 22 51  1  0  0  0  0
 12 52  1  0  0  0  0
 12 53  1  0  0  0  0
 19 54  1  0  0  0  0
 19 55  1  0  0  0  0
 24 56  1  0  0  0  0
 24 57  1  0  0  0  0
 23 58  1  0  0  0  0
 23 59  1  0  0  0  0
 25 60  1  0  0  0  0
 25 61  1  0  0  0  0
 25 62  1  0  0  0  0
M  END

> <energy>
32.61360942618149

> <StdInChI>
InChI=1S/C22H37NO2/c1-2-3-4-5-6-7-8-9-10-11-12-13-14-15-16-17-18-19-22(24)25-21-20-23/h6-7,9-10,12-13,15-16H,2-5,8,11,14,17-21,23H2,1H3/b7-6-,10-9-,13-12-,16-15-

> <StdInChIKey>
DLHLOYYQQGSXCC-DOFZRALJSA-N

> <AuxInfo>
1/0/N:25,23,24,22,18,10,5,15,4,3,13,7,8,14,6,9,17,21,16,19,20,1,12,2,11/rA:62nCOCCCCCCCCONCCCCCCCCCCCCCHHHHHHHHHHHHHHHHHHHHHHHHHHHHHHHHHHHHH/rB:d1;;d3;;;;d7;d6;d5;s1;;s3s7;s6s8;s4s5;s1;s9;s10;s12;s11s19;s16s17;s18;;s22s23;s23;s16;s16;s20;s20;s21;s21;s3;s13;s13;s4;s15;s15;s5;s10;s7;s8;s6;s9;s14;s14;s17;s17;s18;s18;s22;s22;s12;s12;s19;s19;s24;s24;s23;s23;s25;s25;s25;/rC:10.6931,-.9683,-.3195;10.7691,.2485,-.2517;5.0302,-4.2946,3.9005;5.0437,-4.96,5.0667;5.9498,-6.9444,6.3941;5.0696,-1.6084,1.7882;3.8499,-4.532,1.7091;3.5014,-3.4507,.9894;6.4131,-1.6163,1.785;7.0833,-6.471,6.9416;11.7241,-1.8355,-.1346;15.2473,-2.1279,-1.1579;5.0855,-4.8418,2.5;4.1941,-2.1445,.6957;5.0986,-6.443,5.2602;9.4074,-1.7155,-.518;7.2444,-2.1509,.6545;7.8679,-5.2377,6.6011;13.9279,-2.5594,-.7114;12.956,-1.3907,-.7154;8.7434,-1.9239,.841;8.6127,-5.3081,5.2631;10.0699,-3.2115,5.3483;8.886,-3.9164,4.6827;11.3952,-3.5706,4.6925;8.7849,-1.1107,-1.1829;9.5916,-2.6762,-1.0139;12.7733,-1.0438,-1.7391;13.3366,-.5604,-.1104;9.1905,-2.7948,1.3361;8.932,-1.0607,1.4912;4.9889,-3.2127,3.978;5.9794,-4.4633,1.9963;5.2175,-5.9292,2.5068;4.9673,-4.356,5.9698;4.0665,-6.7837,5.4486;5.4297,-6.9583,4.3574;5.5792,-7.8764,6.8268;7.5077,-7.0629,7.7527;3.1282,-5.3514,1.699;2.537,-3.5314,.4846;4.5668,-1.1678,2.6524;6.9269,-1.2266,2.6583;3.4132,-1.3907,.514;4.7353,-2.2413,-.2509;7.0668,-3.2235,.5275;6.915,-1.6634,-.269;7.2143,-4.3597,6.6481;8.6085,-5.092,7.3985;9.5581,-5.8481,5.401;8.0387,-5.8816,4.5258;15.1616,-1.6052,-2.0292;15.6429,-1.4815,-.476;13.5648,-3.3496,-1.3769;14.0103,-2.9823,.2955;9.0627,-4.0102,3.6048;7.9951,-3.2852,4.7808;9.9256,-2.1256,5.2861;10.1198,-3.4541,6.4157;12.1996,-2.9434,5.0937;11.6556,-4.6158,4.8876;11.3591,-3.4164,3.6092;

> <Formula>
C22 H37 N O2

> <Mw>
347.5347

> <SMILES>
C(C([H])([H])C([H])([H])C([H])([H])/C(/[H])=C(/[H])\C([H])([H])/C(/[H])=C(/[H])\C([H])([H])/C(/[H])=C(/[H])\C([H])([H])/C(/[H])=C(/[H])\C([H])([H])C([H])([H])C([H])([H])C([H])([H])C([H])([H])[H])(OC([H])([H])C([H])([H])N([H])[H])=O

> <CSID>
4650158

$$$$
